# generated using pymatgen
data_In68Se69S
_symmetry_space_group_name_H-M   'P 1'
_cell_length_a   24.57884100
_cell_length_b   24.57884087
_cell_length_c   20.00000000
_cell_angle_alpha   90.00000000
_cell_angle_beta   90.00000000
_cell_angle_gamma   119.99999344
_symmetry_Int_Tables_number   1
_chemical_formula_structural   In68Se69S
_chemical_formula_sum   'In68 Se69 S1'
_cell_volume   10463.65601599
_cell_formula_units_Z   1
loop_
 _symmetry_equiv_pos_site_id
 _symmetry_equiv_pos_as_xyz
  1  'x, y, z'
loop_
 _atom_site_type_symbol
 _atom_site_label
 _atom_site_symmetry_multiplicity
 _atom_site_fract_x
 _atom_site_fract_y
 _atom_site_fract_z
 _atom_site_occupancy
  In  In0  1  0.05555600  0.11111100  0.52943800  1
  In  In1  1  0.05555600  0.27777800  0.52943800  1
  In  In2  1  0.05555600  0.44444400  0.52943800  1
  In  In3  1  0.05555600  0.61111100  0.52943800  1
  In  In4  1  0.05555600  0.77777800  0.52943800  1
  In  In5  1  0.05555600  0.94444400  0.52943800  1
  In  In6  1  0.22222200  0.11111100  0.52943800  1
  In  In7  1  0.22222200  0.27777800  0.52943800  1
  In  In8  1  0.22222200  0.44444400  0.52943800  1
  In  In9  1  0.22222200  0.61111100  0.52943800  1
  In  In10  1  0.22222200  0.77777800  0.52943800  1
  In  In11  1  0.22222200  0.94444400  0.52943800  1
  In  In12  1  0.38888900  0.11111100  0.52943800  1
  In  In13  1  0.38888900  0.27777800  0.52943800  1
  In  In14  1  0.38888900  0.44444400  0.52943800  1
  In  In15  1  0.38888900  0.61111100  0.52943800  1
  In  In16  1  0.38888900  0.94444400  0.52943800  1
  In  In17  1  0.55555600  0.11111100  0.52943800  1
  In  In18  1  0.55555600  0.27777800  0.52943800  1
  In  In19  1  0.55555600  0.44444400  0.52943800  1
  In  In20  1  0.55555600  0.61111100  0.52943800  1
  In  In21  1  0.55555600  0.77777800  0.52943800  1
  In  In22  1  0.55555600  0.94444400  0.52943800  1
  In  In23  1  0.72222200  0.11111100  0.52943800  1
  In  In24  1  0.72222200  0.27777800  0.52943800  1
  In  In25  1  0.72222200  0.44444400  0.52943800  1
  In  In26  1  0.72222200  0.61111100  0.52943800  1
  In  In27  1  0.72222200  0.94444400  0.52943800  1
  In  In28  1  0.88888900  0.11111100  0.52943800  1
  In  In29  1  0.88888900  0.27777800  0.52943800  1
  In  In30  1  0.88888900  0.44444400  0.52943800  1
  In  In31  1  0.88888900  0.61111100  0.52943800  1
  In  In32  1  0.88888900  0.77777800  0.52943800  1
  In  In33  1  0.88888900  0.94444400  0.52943800  1
  In  In34  1  0.05555600  0.11111100  0.38773500  1
  In  In35  1  0.05555600  0.27777800  0.38773500  1
  In  In36  1  0.05555600  0.44444400  0.38773500  1
  In  In37  1  0.05555600  0.61111100  0.38773500  1
  In  In38  1  0.05555600  0.77777800  0.38773500  1
  In  In39  1  0.05555600  0.94444400  0.38773500  1
  In  In40  1  0.22222200  0.11111100  0.38773500  1
  In  In41  1  0.22222200  0.27777800  0.38773500  1
  In  In42  1  0.22222200  0.44444400  0.38773500  1
  In  In43  1  0.22222200  0.61111100  0.38773500  1
  In  In44  1  0.22222200  0.77777800  0.38773500  1
  In  In45  1  0.22222200  0.94444400  0.38773500  1
  In  In46  1  0.38888900  0.11111100  0.38773500  1
  In  In47  1  0.38888900  0.27777800  0.38773500  1
  In  In48  1  0.38888900  0.44444400  0.38773500  1
  In  In49  1  0.38888900  0.61111100  0.38773500  1
  In  In50  1  0.38888900  0.77777800  0.38773500  1
  In  In51  1  0.38888900  0.94444400  0.38773500  1
  In  In52  1  0.55555600  0.11111100  0.38773500  1
  In  In53  1  0.55555600  0.27777800  0.38773500  1
  In  In54  1  0.55555600  0.44444400  0.38773500  1
  In  In55  1  0.55555600  0.61111100  0.38773500  1
  In  In56  1  0.55555600  0.77777800  0.38773500  1
  In  In57  1  0.55555600  0.94444400  0.38773500  1
  In  In58  1  0.72222200  0.27777800  0.38773500  1
  In  In59  1  0.72222200  0.44444400  0.38773500  1
  In  In60  1  0.72222200  0.61111100  0.38773500  1
  In  In61  1  0.72222200  0.77777800  0.38773500  1
  In  In62  1  0.72222200  0.94444400  0.38773500  1
  In  In63  1  0.88888900  0.11111100  0.38773500  1
  In  In64  1  0.88888900  0.27777800  0.38773500  1
  In  In65  1  0.88888900  0.44444400  0.38773500  1
  In  In66  1  0.88888900  0.77777800  0.38773500  1
  In  In67  1  0.88888900  0.94444400  0.38773500  1
  Se  Se68  1  0.11111100  0.05555600  0.59281300  1
  Se  Se69  1  0.11111100  0.22222200  0.59281300  1
  Se  Se70  1  0.11111100  0.38888900  0.59281300  1
  Se  Se71  1  0.11111100  0.55555600  0.59281300  1
  Se  Se72  1  0.11111100  0.72222200  0.59281300  1
  Se  Se73  1  0.11111100  0.88888900  0.59281300  1
  Se  Se74  1  0.27777800  0.05555600  0.59281300  1
  Se  Se75  1  0.27777800  0.22222200  0.59281300  1
  Se  Se76  1  0.27777800  0.38888900  0.59281300  1
  Se  Se77  1  0.27777800  0.55555600  0.59281300  1
  Se  Se78  1  0.27777800  0.72222200  0.59281300  1
  Se  Se79  1  0.27777800  0.88888900  0.59281300  1
  Se  Se80  1  0.44444400  0.05555600  0.59281300  1
  Se  Se81  1  0.44444400  0.22222200  0.59281300  1
  Se  Se82  1  0.44444400  0.38888900  0.59281300  1
  Se  Se83  1  0.44444400  0.55555600  0.59281300  1
  Se  Se84  1  0.44444400  0.72222200  0.59281300  1
  Se  Se85  1  0.44444400  0.88888900  0.59281300  1
  Se  Se86  1  0.61111100  0.05555600  0.59281300  1
  Se  Se87  1  0.61111100  0.22222200  0.59281300  1
  Se  Se88  1  0.61111100  0.38888900  0.59281300  1
  Se  Se89  1  0.61111100  0.55555600  0.59281300  1
  Se  Se90  1  0.61111100  0.72222200  0.59281300  1
  Se  Se91  1  0.61111100  0.88888900  0.59281300  1
  Se  Se92  1  0.77777800  0.05555600  0.59281300  1
  Se  Se93  1  0.77777800  0.22222200  0.59281300  1
  Se  Se94  1  0.77777800  0.38888900  0.59281300  1
  Se  Se95  1  0.77777800  0.88888900  0.59281300  1
  Se  Se96  1  0.94444400  0.05555600  0.59281300  1
  Se  Se97  1  0.94444400  0.22222200  0.59281300  1
  Se  Se98  1  0.94444400  0.38888900  0.59281300  1
  Se  Se99  1  0.94444400  0.55555600  0.59281300  1
  Se  Se100  1  0.94444400  0.72222200  0.59281300  1
  Se  Se101  1  0.94444400  0.88888900  0.59281300  1
  Se  Se102  1  0.11111100  0.05555600  0.32435900  1
  Se  Se103  1  0.11111100  0.22222200  0.32435900  1
  Se  Se104  1  0.11111100  0.38888900  0.32435900  1
  Se  Se105  1  0.11111100  0.55555600  0.32435900  1
  Se  Se106  1  0.11111100  0.72222200  0.32435900  1
  Se  Se107  1  0.11111100  0.88888900  0.32435900  1
  Se  Se108  1  0.27777800  0.05555600  0.32435900  1
  Se  Se109  1  0.27777800  0.22222200  0.32435900  1
  Se  Se110  1  0.27777800  0.38888900  0.32435900  1
  Se  Se111  1  0.27777800  0.55555600  0.32435900  1
  Se  Se112  1  0.27777800  0.72222200  0.32435900  1
  Se  Se113  1  0.27777800  0.88888900  0.32435900  1
  Se  Se114  1  0.44444400  0.05555600  0.32435900  1
  Se  Se115  1  0.44444400  0.22222200  0.32435900  1
  Se  Se116  1  0.44444400  0.38888900  0.32435900  1
  Se  Se117  1  0.44444400  0.55555600  0.32435900  1
  Se  Se118  1  0.44444400  0.72222200  0.32435900  1
  Se  Se119  1  0.44444400  0.88888900  0.32435900  1
  Se  Se120  1  0.61111100  0.05555600  0.32435900  1
  Se  Se121  1  0.61111100  0.22222200  0.32435900  1
  Se  Se122  1  0.61111100  0.38888900  0.32435900  1
  Se  Se123  1  0.61111100  0.55555600  0.32435900  1
  Se  Se124  1  0.61111100  0.72222200  0.32435900  1
  Se  Se125  1  0.61111100  0.88888900  0.32435900  1
  Se  Se126  1  0.77777800  0.05555600  0.32435900  1
  Se  Se127  1  0.77777800  0.22222200  0.32435900  1
  Se  Se128  1  0.77777800  0.38888900  0.32435900  1
  Se  Se129  1  0.77777800  0.55555600  0.32435900  1
  Se  Se130  1  0.77777800  0.72222200  0.32435900  1
  Se  Se131  1  0.77777800  0.88888900  0.32435900  1
  Se  Se132  1  0.94444400  0.05555600  0.32435900  1
  Se  Se133  1  0.94444400  0.22222200  0.32435900  1
  Se  Se134  1  0.94444400  0.38888900  0.32435900  1
  Se  Se135  1  0.94444400  0.72222200  0.32435900  1
  Se  Se136  1  0.94444400  0.88888900  0.32435900  1
  S  S137  1  0.94444400  0.55555600  0.32435900  1
