# generated using pymatgen
data_P26N
_symmetry_space_group_name_H-M   'P 1'
_cell_length_a   19.79950800
_cell_length_b   27.60555600
_cell_length_c   20.00000000
_cell_angle_alpha   90.00000000
_cell_angle_beta   90.00000000
_cell_angle_gamma   90.00000000
_symmetry_Int_Tables_number   1
_chemical_formula_structural   P26N
_chemical_formula_sum   'P130 N5'
_cell_volume   10931.52853733
_cell_formula_units_Z   5
loop_
 _symmetry_equiv_pos_site_id
 _symmetry_equiv_pos_as_xyz
  1  'x, y, z'
loop_
 _atom_site_type_symbol
 _atom_site_label
 _atom_site_symmetry_multiplicity
 _atom_site_fract_x
 _atom_site_fract_y
 _atom_site_fract_z
 _atom_site_occupancy
  P  P0  1  0.00000000  0.09809300  0.20912300  1
  P  P1  1  0.00000000  0.26475900  0.20912300  1
  P  P2  1  0.00000000  0.43142600  0.20912300  1
  P  P3  1  0.00000000  0.59809300  0.20912300  1
  P  P4  1  0.00000000  0.76475900  0.20912300  1
  P  P5  1  0.00000000  0.93142600  0.20912300  1
  P  P6  1  0.16666700  0.26475900  0.20912300  1
  P  P7  1  0.16666700  0.43142600  0.20912300  1
  P  P8  1  0.16666700  0.59809300  0.20912300  1
  P  P9  1  0.16666700  0.76475900  0.20912300  1
  P  P10  1  0.16666700  0.93142600  0.20912300  1
  P  P11  1  0.33333300  0.09809300  0.20912300  1
  P  P12  1  0.33333300  0.26475900  0.20912300  1
  P  P13  1  0.33333300  0.43142600  0.20912300  1
  P  P14  1  0.33333300  0.59809300  0.20912300  1
  P  P15  1  0.33333300  0.76475900  0.20912300  1
  P  P16  1  0.33333300  0.93142600  0.20912300  1
  P  P17  1  0.50000000  0.09809300  0.20912300  1
  P  P18  1  0.50000000  0.26475900  0.20912300  1
  P  P19  1  0.50000000  0.59809300  0.20912300  1
  P  P20  1  0.50000000  0.76475900  0.20912300  1
  P  P21  1  0.50000000  0.93142600  0.20912300  1
  P  P22  1  0.66666700  0.09809300  0.20912300  1
  P  P23  1  0.66666700  0.26475900  0.20912300  1
  P  P24  1  0.66666700  0.59809300  0.20912300  1
  P  P25  1  0.66666700  0.76475900  0.20912300  1
  P  P26  1  0.66666700  0.93142600  0.20912300  1
  P  P27  1  0.83333300  0.09809300  0.20912300  1
  P  P28  1  0.83333300  0.26475900  0.20912300  1
  P  P29  1  0.83333300  0.43142600  0.20912300  1
  P  P30  1  0.83333300  0.59809300  0.20912300  1
  P  P31  1  0.83333300  0.76475900  0.20912300  1
  P  P32  1  0.83333300  0.93142600  0.20912300  1
  P  P33  1  0.00000000  0.06857400  0.31443600  1
  P  P34  1  0.00000000  0.23524000  0.31443600  1
  P  P35  1  0.00000000  0.40190700  0.31443600  1
  P  P36  1  0.00000000  0.56857400  0.31443600  1
  P  P37  1  0.00000000  0.73524000  0.31443600  1
  P  P38  1  0.16666700  0.06857400  0.31443600  1
  P  P39  1  0.16666700  0.23524000  0.31443600  1
  P  P40  1  0.16666700  0.40190700  0.31443600  1
  P  P41  1  0.16666700  0.56857400  0.31443600  1
  P  P42  1  0.16666700  0.73524000  0.31443600  1
  P  P43  1  0.16666700  0.90190700  0.31443600  1
  P  P44  1  0.33333300  0.06857400  0.31443600  1
  P  P45  1  0.33333300  0.23524000  0.31443600  1
  P  P46  1  0.33333300  0.40190700  0.31443600  1
  P  P47  1  0.33333300  0.56857400  0.31443600  1
  P  P48  1  0.33333300  0.90190700  0.31443600  1
  P  P49  1  0.50000000  0.06857400  0.31443600  1
  P  P50  1  0.50000000  0.23524000  0.31443600  1
  P  P51  1  0.50000000  0.40190700  0.31443600  1
  P  P52  1  0.50000000  0.56857400  0.31443600  1
  P  P53  1  0.50000000  0.90190700  0.31443600  1
  P  P54  1  0.66666700  0.06857400  0.31443600  1
  P  P55  1  0.66666700  0.23524000  0.31443600  1
  P  P56  1  0.66666700  0.56857400  0.31443600  1
  P  P57  1  0.66666700  0.73524000  0.31443600  1
  P  P58  1  0.66666700  0.90190700  0.31443600  1
  P  P59  1  0.83333300  0.06857400  0.31443600  1
  P  P60  1  0.83333300  0.23524000  0.31443600  1
  P  P61  1  0.83333300  0.40190700  0.31443600  1
  P  P62  1  0.83333300  0.56857400  0.31443600  1
  P  P63  1  0.83333300  0.73524000  0.31443600  1
  P  P64  1  0.83333300  0.90190700  0.31443600  1
  P  P65  1  0.08333300  0.01476000  0.31443600  1
  P  P66  1  0.08333300  0.18142600  0.31443600  1
  P  P67  1  0.08333300  0.34809300  0.31443600  1
  P  P68  1  0.08333300  0.51475900  0.31443600  1
  P  P69  1  0.08333300  0.68142600  0.31443600  1
  P  P70  1  0.08333300  0.84809300  0.31443600  1
  P  P71  1  0.25000000  0.01476000  0.31443600  1
  P  P72  1  0.25000000  0.18142600  0.31443600  1
  P  P73  1  0.25000000  0.34809300  0.31443600  1
  P  P74  1  0.25000000  0.51475900  0.31443600  1
  P  P75  1  0.25000000  0.68142600  0.31443600  1
  P  P76  1  0.25000000  0.84809300  0.31443600  1
  P  P77  1  0.41666700  0.18142600  0.31443600  1
  P  P78  1  0.41666700  0.34809300  0.31443600  1
  P  P79  1  0.41666700  0.51475900  0.31443600  1
  P  P80  1  0.41666700  0.68142600  0.31443600  1
  P  P81  1  0.41666700  0.84809300  0.31443600  1
  P  P82  1  0.58333300  0.01476000  0.31443600  1
  P  P83  1  0.58333300  0.18142600  0.31443600  1
  P  P84  1  0.58333300  0.34809300  0.31443600  1
  P  P85  1  0.58333300  0.51475900  0.31443600  1
  P  P86  1  0.58333300  0.68142600  0.31443600  1
  P  P87  1  0.58333300  0.84809300  0.31443600  1
  P  P88  1  0.75000000  0.01476000  0.31443600  1
  P  P89  1  0.75000000  0.34809300  0.31443600  1
  P  P90  1  0.75000000  0.51475900  0.31443600  1
  P  P91  1  0.75000000  0.68142600  0.31443600  1
  P  P92  1  0.75000000  0.84809300  0.31443600  1
  P  P93  1  0.91666700  0.01476000  0.31443600  1
  P  P94  1  0.91666700  0.18142600  0.31443600  1
  P  P95  1  0.91666700  0.34809300  0.31443600  1
  P  P96  1  0.91666700  0.51475900  0.31443600  1
  P  P97  1  0.91666700  0.68142600  0.31443600  1
  P  P98  1  0.91666700  0.84809300  0.31443600  1
  P  P99  1  0.08333300  0.31857400  0.20912300  1
  P  P100  1  0.08333300  0.48524000  0.20912300  1
  P  P101  1  0.08333300  0.65190700  0.20912300  1
  P  P102  1  0.08333300  0.81857400  0.20912300  1
  P  P103  1  0.08333300  0.98524100  0.20912300  1
  P  P104  1  0.25000000  0.15190700  0.20912300  1
  P  P105  1  0.25000000  0.48524000  0.20912300  1
  P  P106  1  0.25000000  0.81857400  0.20912300  1
  P  P107  1  0.25000000  0.98524100  0.20912300  1
  P  P108  1  0.41666700  0.15190700  0.20912300  1
  P  P109  1  0.41666700  0.31857400  0.20912300  1
  P  P110  1  0.41666700  0.48524000  0.20912300  1
  P  P111  1  0.41666700  0.65190700  0.20912300  1
  P  P112  1  0.41666700  0.81857400  0.20912300  1
  P  P113  1  0.41666700  0.98524100  0.20912300  1
  P  P114  1  0.58333300  0.15190700  0.20912300  1
  P  P115  1  0.58333300  0.31857400  0.20912300  1
  P  P116  1  0.58333300  0.48524000  0.20912300  1
  P  P117  1  0.58333300  0.65190700  0.20912300  1
  P  P118  1  0.58333300  0.81857400  0.20912300  1
  P  P119  1  0.58333300  0.98524100  0.20912300  1
  P  P120  1  0.75000000  0.15190700  0.20912300  1
  P  P121  1  0.75000000  0.31857400  0.20912300  1
  P  P122  1  0.75000000  0.48524000  0.20912300  1
  P  P123  1  0.75000000  0.65190700  0.20912300  1
  P  P124  1  0.75000000  0.81857400  0.20912300  1
  P  P125  1  0.75000000  0.98524100  0.20912300  1
  P  P126  1  0.91666700  0.15190700  0.20912300  1
  P  P127  1  0.91666700  0.48524000  0.20912300  1
  P  P128  1  0.91666700  0.65190700  0.20912300  1
  P  P129  1  0.91666700  0.98524100  0.20912300  1
  N  N130  1  0.50000000  0.73524000  0.31443600  1
  N  N131  1  0.41666700  0.01476000  0.31443600  1
  N  N132  1  0.75000000  0.18142600  0.31443600  1
  N  N133  1  0.25000000  0.65190700  0.20912300  1
  N  N134  1  0.91666700  0.31857400  0.20912300  1
