# generated using pymatgen
data_MoW63(Se63S)2
_symmetry_space_group_name_H-M   'P 1'
_cell_length_a   26.61600000
_cell_length_b   26.61600000
_cell_length_c   15.06895100
_cell_angle_alpha   90.00000000
_cell_angle_beta   90.00000000
_cell_angle_gamma   120.00000000
_symmetry_Int_Tables_number   1
_chemical_formula_structural   MoW63(Se63S)2
_chemical_formula_sum   'Mo1 W63 Se126 S2'
_cell_volume   9244.83635669
_cell_formula_units_Z   1
loop_
 _symmetry_equiv_pos_site_id
 _symmetry_equiv_pos_as_xyz
  1  'x, y, z'
loop_
 _atom_site_type_symbol
 _atom_site_label
 _atom_site_symmetry_multiplicity
 _atom_site_fract_x
 _atom_site_fract_y
 _atom_site_fract_z
 _atom_site_occupancy
  Mo  Mo0  1  0.54166700  0.45833300  0.25000000  1.0
  W  W1  1  0.04166700  0.08333300  0.25000000  1.0
  W  W2  1  0.04166700  0.20833300  0.25000000  1.0
  W  W3  1  0.04166700  0.33333333  0.25000000  1.0
  W  W4  1  0.04166700  0.45833300  0.25000000  1.0
  W  W5  1  0.04166700  0.58333300  0.25000000  1.0
  W  W6  1  0.04166700  0.70833300  0.25000000  1.0
  W  W7  1  0.04166700  0.83333300  0.25000000  1.0
  W  W8  1  0.04166700  0.95833300  0.25000000  1.0
  W  W9  1  0.16666700  0.08333300  0.25000000  1.0
  W  W10  1  0.16666700  0.20833300  0.25000000  1.0
  W  W11  1  0.16666700  0.33333333  0.25000000  1.0
  W  W12  1  0.16666700  0.45833300  0.25000000  1.0
  W  W13  1  0.16666700  0.58333300  0.25000000  1.0
  W  W14  1  0.16666700  0.70833300  0.25000000  1.0
  W  W15  1  0.16666700  0.83333300  0.25000000  1.0
  W  W16  1  0.16666700  0.95833300  0.25000000  1.0
  W  W17  1  0.29166700  0.08333300  0.25000000  1.0
  W  W18  1  0.29166700  0.20833300  0.25000000  1.0
  W  W19  1  0.29166700  0.33333333  0.25000000  1.0
  W  W20  1  0.29166700  0.45833300  0.25000000  1.0
  W  W21  1  0.29166700  0.58333300  0.25000000  1.0
  W  W22  1  0.29166700  0.70833300  0.25000000  1.0
  W  W23  1  0.29166700  0.83333300  0.25000000  1.0
  W  W24  1  0.29166700  0.95833300  0.25000000  1.0
  W  W25  1  0.41666700  0.08333300  0.25000000  1.0
  W  W26  1  0.41666700  0.20833300  0.25000000  1.0
  W  W27  1  0.41666700  0.33333333  0.25000000  1.0
  W  W28  1  0.41666700  0.45833300  0.25000000  1.0
  W  W29  1  0.41666700  0.58333300  0.25000000  1.0
  W  W30  1  0.41666700  0.70833300  0.25000000  1.0
  W  W31  1  0.41666700  0.83333300  0.25000000  1.0
  W  W32  1  0.41666700  0.95833300  0.25000000  1.0
  W  W33  1  0.54166700  0.08333300  0.25000000  1.0
  W  W34  1  0.54166700  0.20833300  0.25000000  1.0
  W  W35  1  0.54166700  0.33333333  0.25000000  1.0
  W  W36  1  0.54166700  0.58333300  0.25000000  1.0
  W  W37  1  0.54166700  0.70833300  0.25000000  1.0
  W  W38  1  0.54166700  0.83333300  0.25000000  1.0
  W  W39  1  0.54166700  0.95833300  0.25000000  1.0
  W  W40  1  0.66666667  0.08333300  0.25000000  1.0
  W  W41  1  0.66666667  0.20833300  0.25000000  1.0
  W  W42  1  0.66666667  0.33333333  0.25000000  1.0
  W  W43  1  0.66666667  0.45833300  0.25000000  1.0
  W  W44  1  0.66666667  0.58333300  0.25000000  1.0
  W  W45  1  0.66666667  0.70833300  0.25000000  1.0
  W  W46  1  0.66666667  0.83333300  0.25000000  1.0
  W  W47  1  0.66666667  0.95833300  0.25000000  1.0
  W  W48  1  0.79166700  0.08333300  0.25000000  1.0
  W  W49  1  0.79166700  0.20833300  0.25000000  1.0
  W  W50  1  0.79166700  0.33333333  0.25000000  1.0
  W  W51  1  0.79166700  0.45833300  0.25000000  1.0
  W  W52  1  0.79166700  0.58333300  0.25000000  1.0
  W  W53  1  0.79166700  0.70833300  0.25000000  1.0
  W  W54  1  0.79166700  0.83333300  0.25000000  1.0
  W  W55  1  0.79166700  0.95833300  0.25000000  1.0
  W  W56  1  0.91666700  0.08333300  0.25000000  1.0
  W  W57  1  0.91666700  0.20833300  0.25000000  1.0
  W  W58  1  0.91666700  0.33333333  0.25000000  1.0
  W  W59  1  0.91666700  0.45833300  0.25000000  1.0
  W  W60  1  0.91666700  0.58333300  0.25000000  1.0
  W  W61  1  0.91666700  0.70833300  0.25000000  1.0
  W  W62  1  0.91666700  0.83333300  0.25000000  1.0
  W  W63  1  0.91666700  0.95833300  0.25000000  1.0
  Se  Se64  1  0.08333300  0.04166700  0.13842800  1.0
  Se  Se65  1  0.08333300  0.16666700  0.13842800  1.0
  Se  Se66  1  0.08333300  0.29166700  0.13842800  1.0
  Se  Se67  1  0.08333300  0.41666700  0.13842800  1.0
  Se  Se68  1  0.08333300  0.54166700  0.13842800  1.0
  Se  Se69  1  0.08333300  0.66666667  0.13842800  1.0
  Se  Se70  1  0.08333300  0.79166700  0.13842800  1.0
  Se  Se71  1  0.08333300  0.91666700  0.13842800  1.0
  Se  Se72  1  0.20833300  0.04166700  0.13842800  1.0
  Se  Se73  1  0.20833300  0.16666700  0.13842800  1.0
  Se  Se74  1  0.20833300  0.29166700  0.13842800  1.0
  Se  Se75  1  0.20833300  0.41666700  0.13842800  1.0
  Se  Se76  1  0.20833300  0.54166700  0.13842800  1.0
  Se  Se77  1  0.20833300  0.66666667  0.13842800  1.0
  Se  Se78  1  0.20833300  0.79166700  0.13842800  1.0
  Se  Se79  1  0.20833300  0.91666700  0.13842800  1.0
  Se  Se80  1  0.33333333  0.04166700  0.13842800  1.0
  Se  Se81  1  0.33333333  0.16666700  0.13842800  1.0
  Se  Se82  1  0.33333333  0.29166700  0.13842800  1.0
  Se  Se83  1  0.33333333  0.41666700  0.13842800  1.0
  Se  Se84  1  0.33333333  0.54166700  0.13842800  1.0
  Se  Se85  1  0.33333333  0.66666667  0.13842800  1.0
  Se  Se86  1  0.33333333  0.79166700  0.13842800  1.0
  Se  Se87  1  0.33333333  0.91666700  0.13842800  1.0
  Se  Se88  1  0.45833300  0.04166700  0.13842800  1.0
  Se  Se89  1  0.45833300  0.16666700  0.13842800  1.0
  Se  Se90  1  0.45833300  0.29166700  0.13842800  1.0
  Se  Se91  1  0.45833300  0.41666700  0.13842800  1.0
  Se  Se92  1  0.45833300  0.54166700  0.13842800  1.0
  Se  Se93  1  0.45833300  0.66666667  0.13842800  1.0
  Se  Se94  1  0.45833300  0.79166700  0.13842800  1.0
  Se  Se95  1  0.45833300  0.91666700  0.13842800  1.0
  Se  Se96  1  0.58333300  0.04166700  0.13842800  1.0
  Se  Se97  1  0.58333300  0.16666700  0.13842800  1.0
  Se  Se98  1  0.58333300  0.29166700  0.13842800  1.0
  Se  Se99  1  0.58333300  0.41666700  0.13842800  1.0
  Se  Se100  1  0.58333300  0.66666667  0.13842800  1.0
  Se  Se101  1  0.58333300  0.79166700  0.13842800  1.0
  Se  Se102  1  0.58333300  0.91666700  0.13842800  1.0
  Se  Se103  1  0.70833300  0.04166700  0.13842800  1.0
  Se  Se104  1  0.70833300  0.16666700  0.13842800  1.0
  Se  Se105  1  0.70833300  0.29166700  0.13842800  1.0
  Se  Se106  1  0.70833300  0.41666700  0.13842800  1.0
  Se  Se107  1  0.70833300  0.54166700  0.13842800  1.0
  Se  Se108  1  0.70833300  0.66666667  0.13842800  1.0
  Se  Se109  1  0.70833300  0.79166700  0.13842800  1.0
  Se  Se110  1  0.83333300  0.04166700  0.13842800  1.0
  Se  Se111  1  0.83333300  0.16666700  0.13842800  1.0
  Se  Se112  1  0.83333300  0.29166700  0.13842800  1.0
  Se  Se113  1  0.83333300  0.41666700  0.13842800  1.0
  Se  Se114  1  0.83333300  0.54166700  0.13842800  1.0
  Se  Se115  1  0.83333300  0.66666667  0.13842800  1.0
  Se  Se116  1  0.83333300  0.79166700  0.13842800  1.0
  Se  Se117  1  0.83333300  0.91666700  0.13842800  1.0
  Se  Se118  1  0.95833300  0.04166700  0.13842800  1.0
  Se  Se119  1  0.95833300  0.16666700  0.13842800  1.0
  Se  Se120  1  0.95833300  0.29166700  0.13842800  1.0
  Se  Se121  1  0.95833300  0.41666700  0.13842800  1.0
  Se  Se122  1  0.95833300  0.54166700  0.13842800  1.0
  Se  Se123  1  0.95833300  0.66666667  0.13842800  1.0
  Se  Se124  1  0.95833300  0.79166700  0.13842800  1.0
  Se  Se125  1  0.95833300  0.91666700  0.13842800  1.0
  Se  Se126  1  0.08333300  0.04166700  0.36157200  1.0
  Se  Se127  1  0.08333300  0.16666700  0.36157200  1.0
  Se  Se128  1  0.08333300  0.29166700  0.36157200  1.0
  Se  Se129  1  0.08333300  0.41666700  0.36157200  1.0
  Se  Se130  1  0.08333300  0.54166700  0.36157200  1.0
  Se  Se131  1  0.08333300  0.66666667  0.36157200  1.0
  Se  Se132  1  0.08333300  0.79166700  0.36157200  1.0
  Se  Se133  1  0.08333300  0.91666700  0.36157200  1.0
  Se  Se134  1  0.20833300  0.04166700  0.36157200  1.0
  Se  Se135  1  0.20833300  0.16666700  0.36157200  1.0
  Se  Se136  1  0.20833300  0.29166700  0.36157200  1.0
  Se  Se137  1  0.20833300  0.41666700  0.36157200  1.0
  Se  Se138  1  0.20833300  0.54166700  0.36157200  1.0
  Se  Se139  1  0.20833300  0.66666667  0.36157200  1.0
  Se  Se140  1  0.20833300  0.79166700  0.36157200  1.0
  Se  Se141  1  0.20833300  0.91666700  0.36157200  1.0
  Se  Se142  1  0.33333333  0.04166700  0.36157200  1.0
  Se  Se143  1  0.33333333  0.16666700  0.36157200  1.0
  Se  Se144  1  0.33333333  0.29166700  0.36157200  1.0
  Se  Se145  1  0.33333333  0.41666700  0.36157200  1.0
  Se  Se146  1  0.33333333  0.54166700  0.36157200  1.0
  Se  Se147  1  0.33333333  0.66666667  0.36157200  1.0
  Se  Se148  1  0.33333333  0.79166700  0.36157200  1.0
  Se  Se149  1  0.33333333  0.91666700  0.36157200  1.0
  Se  Se150  1  0.45833300  0.04166700  0.36157200  1.0
  Se  Se151  1  0.45833300  0.16666700  0.36157200  1.0
  Se  Se152  1  0.45833300  0.29166700  0.36157200  1.0
  Se  Se153  1  0.45833300  0.41666700  0.36157200  1.0
  Se  Se154  1  0.45833300  0.54166700  0.36157200  1.0
  Se  Se155  1  0.45833300  0.66666667  0.36157200  1.0
  Se  Se156  1  0.45833300  0.79166700  0.36157200  1.0
  Se  Se157  1  0.45833300  0.91666700  0.36157200  1.0
  Se  Se158  1  0.58333300  0.04166700  0.36157200  1.0
  Se  Se159  1  0.58333300  0.16666700  0.36157200  1.0
  Se  Se160  1  0.58333300  0.29166700  0.36157200  1.0
  Se  Se161  1  0.58333300  0.41666700  0.36157200  1.0
  Se  Se162  1  0.58333300  0.54166700  0.36157200  1.0
  Se  Se163  1  0.58333300  0.66666667  0.36157200  1.0
  Se  Se164  1  0.58333300  0.79166700  0.36157200  1.0
  Se  Se165  1  0.58333300  0.91666700  0.36157200  1.0
  Se  Se166  1  0.70833300  0.04166700  0.36157200  1.0
  Se  Se167  1  0.70833300  0.16666700  0.36157200  1.0
  Se  Se168  1  0.70833300  0.29166700  0.36157200  1.0
  Se  Se169  1  0.70833300  0.41666700  0.36157200  1.0
  Se  Se170  1  0.70833300  0.54166700  0.36157200  1.0
  Se  Se171  1  0.70833300  0.66666667  0.36157200  1.0
  Se  Se172  1  0.70833300  0.79166700  0.36157200  1.0
  Se  Se173  1  0.70833300  0.91666700  0.36157200  1.0
  Se  Se174  1  0.83333300  0.04166700  0.36157200  1.0
  Se  Se175  1  0.83333300  0.16666700  0.36157200  1.0
  Se  Se176  1  0.83333300  0.29166700  0.36157200  1.0
  Se  Se177  1  0.83333300  0.41666700  0.36157200  1.0
  Se  Se178  1  0.83333300  0.54166700  0.36157200  1.0
  Se  Se179  1  0.83333300  0.66666667  0.36157200  1.0
  Se  Se180  1  0.83333300  0.79166700  0.36157200  1.0
  Se  Se181  1  0.83333300  0.91666700  0.36157200  1.0
  Se  Se182  1  0.95833300  0.04166700  0.36157200  1.0
  Se  Se183  1  0.95833300  0.16666700  0.36157200  1.0
  Se  Se184  1  0.95833300  0.29166700  0.36157200  1.0
  Se  Se185  1  0.95833300  0.41666700  0.36157200  1.0
  Se  Se186  1  0.95833300  0.54166700  0.36157200  1.0
  Se  Se187  1  0.95833300  0.66666667  0.36157200  1.0
  Se  Se188  1  0.95833300  0.79166700  0.36157200  1.0
  Se  Se189  1  0.95833300  0.91666700  0.36157200  1.0
  S  S190  1  0.70833300  0.91666700  0.13842800  1.0
  S  S191  1  0.58333300  0.54166700  0.13842800  1.0
