# generated using pymatgen
data_Mo14W(SeS14)2
_symmetry_space_group_name_H-M   'P 1'
_cell_length_a   25.52252600
_cell_length_b   25.52252610
_cell_length_c   20.00000000
_cell_angle_alpha   90.00000000
_cell_angle_beta   90.00000000
_cell_angle_gamma   119.99999987
_symmetry_Int_Tables_number   1
_chemical_formula_structural   Mo14W(SeS14)2
_chemical_formula_sum   'Mo56 W4 Se8 S112'
_cell_volume   11282.56747384
_cell_formula_units_Z   4
loop_
 _symmetry_equiv_pos_site_id
 _symmetry_equiv_pos_as_xyz
  1  'x, y, z'
loop_
 _atom_site_type_symbol
 _atom_site_label
 _atom_site_symmetry_multiplicity
 _atom_site_fract_x
 _atom_site_fract_y
 _atom_site_fract_z
 _atom_site_occupancy
  Mo  Mo0  1  0.04166700  0.08333300  0.18598755  1
  Mo  Mo1  1  0.04166700  0.20833300  0.18598755  1
  Mo  Mo2  1  0.04166700  0.33333300  0.18598755  1
  Mo  Mo3  1  0.04166700  0.45833300  0.18598755  1
  Mo  Mo4  1  0.04166700  0.58333300  0.18598755  1
  Mo  Mo5  1  0.04166700  0.70833300  0.18598755  1
  Mo  Mo6  1  0.04166700  0.83333300  0.18598755  1
  Mo  Mo7  1  0.04166700  0.95833300  0.18598755  1
  Mo  Mo8  1  0.16666700  0.20833300  0.18598755  1
  Mo  Mo9  1  0.16666700  0.33333300  0.18598755  1
  Mo  Mo10  1  0.16666700  0.45833300  0.18598755  1
  Mo  Mo11  1  0.16666700  0.58333300  0.18598755  1
  Mo  Mo12  1  0.16666700  0.70833300  0.18598755  1
  Mo  Mo13  1  0.16666700  0.83333300  0.18598755  1
  Mo  Mo14  1  0.16666700  0.95833300  0.18598755  1
  Mo  Mo15  1  0.29166700  0.08333300  0.18598755  1
  Mo  Mo16  1  0.29166700  0.20833300  0.18598755  1
  Mo  Mo17  1  0.29166700  0.33333300  0.18598755  1
  Mo  Mo18  1  0.29166700  0.45833300  0.18598755  1
  Mo  Mo19  1  0.29166700  0.70833300  0.18598755  1
  Mo  Mo20  1  0.29166700  0.83333300  0.18598755  1
  Mo  Mo21  1  0.29166700  0.95833300  0.18598755  1
  Mo  Mo22  1  0.41666700  0.08333300  0.18598755  1
  Mo  Mo23  1  0.41666700  0.20833300  0.18598755  1
  Mo  Mo24  1  0.41666700  0.33333300  0.18598755  1
  Mo  Mo25  1  0.41666700  0.45833300  0.18598755  1
  Mo  Mo26  1  0.41666700  0.58333300  0.18598755  1
  Mo  Mo27  1  0.41666700  0.95833300  0.18598755  1
  Mo  Mo28  1  0.54166700  0.08333300  0.18598755  1
  Mo  Mo29  1  0.54166700  0.33333300  0.18598755  1
  Mo  Mo30  1  0.54166700  0.58333300  0.18598755  1
  Mo  Mo31  1  0.54166700  0.70833300  0.18598755  1
  Mo  Mo32  1  0.54166700  0.83333300  0.18598755  1
  Mo  Mo33  1  0.54166700  0.95833300  0.18598755  1
  Mo  Mo34  1  0.66666700  0.08333300  0.18598755  1
  Mo  Mo35  1  0.66666700  0.20833300  0.18598755  1
  Mo  Mo36  1  0.66666700  0.33333300  0.18598755  1
  Mo  Mo37  1  0.66666700  0.45833300  0.18598755  1
  Mo  Mo38  1  0.66666700  0.58333300  0.18598755  1
  Mo  Mo39  1  0.66666700  0.70833300  0.18598755  1
  Mo  Mo40  1  0.66666700  0.83333300  0.18598755  1
  Mo  Mo41  1  0.66666700  0.95833300  0.18598755  1
  Mo  Mo42  1  0.79166700  0.08333300  0.18598755  1
  Mo  Mo43  1  0.79166700  0.20833300  0.18598755  1
  Mo  Mo44  1  0.79166700  0.33333300  0.18598755  1
  Mo  Mo45  1  0.79166700  0.45833300  0.18598755  1
  Mo  Mo46  1  0.79166700  0.70833300  0.18598755  1
  Mo  Mo47  1  0.79166700  0.83333300  0.18598755  1
  Mo  Mo48  1  0.79166700  0.95833300  0.18598755  1
  Mo  Mo49  1  0.91666700  0.08333300  0.18598755  1
  Mo  Mo50  1  0.91666700  0.20833300  0.18598755  1
  Mo  Mo51  1  0.91666700  0.33333300  0.18598755  1
  Mo  Mo52  1  0.91666700  0.45833300  0.18598755  1
  Mo  Mo53  1  0.91666700  0.58333300  0.18598755  1
  Mo  Mo54  1  0.91666700  0.70833300  0.18598755  1
  Mo  Mo55  1  0.91666700  0.95833300  0.18598755  1
  W  W56  1  0.29166700  0.58333300  0.18598755  1
  W  W57  1  0.41666700  0.70833300  0.18598755  1
  W  W58  1  0.41666700  0.83333300  0.18598755  1
  W  W59  1  0.54166700  0.20833300  0.18598755  1
  Se  Se60  1  0.45833300  0.41666700  0.10774333  1
  Se  Se61  1  0.58333300  0.66666700  0.10774333  1
  Se  Se62  1  0.58333300  0.91666700  0.10774333  1
  Se  Se63  1  0.08333300  0.54166700  0.26423177  1
  Se  Se64  1  0.58333300  0.79166700  0.26423177  1
  Se  Se65  1  0.70833300  0.16666700  0.26423177  1
  Se  Se66  1  0.83333300  0.16666700  0.26423177  1
  Se  Se67  1  0.83333300  0.91666700  0.26423177  1
  S  S68  1  0.08333300  0.04166700  0.10774333  1
  S  S69  1  0.08333300  0.16666700  0.10774333  1
  S  S70  1  0.08333300  0.29166700  0.10774333  1
  S  S71  1  0.08333300  0.41666700  0.10774333  1
  S  S72  1  0.08333300  0.54166700  0.10774333  1
  S  S73  1  0.08333300  0.66666700  0.10774333  1
  S  S74  1  0.08333300  0.79166700  0.10774333  1
  S  S75  1  0.08333300  0.91666700  0.10774333  1
  S  S76  1  0.20833300  0.04166700  0.10774333  1
  S  S77  1  0.20833300  0.16666700  0.10774333  1
  S  S78  1  0.20833300  0.29166700  0.10774333  1
  S  S79  1  0.20833300  0.41666700  0.10774333  1
  S  S80  1  0.20833300  0.54166700  0.10774333  1
  S  S81  1  0.20833300  0.66666700  0.10774333  1
  S  S82  1  0.20833300  0.79166700  0.10774333  1
  S  S83  1  0.20833300  0.91666700  0.10774333  1
  S  S84  1  0.33333300  0.04166700  0.10774333  1
  S  S85  1  0.33333300  0.16666700  0.10774333  1
  S  S86  1  0.33333300  0.29166700  0.10774333  1
  S  S87  1  0.33333300  0.41666700  0.10774333  1
  S  S88  1  0.33333300  0.54166700  0.10774333  1
  S  S89  1  0.33333300  0.79166700  0.10774333  1
  S  S90  1  0.33333300  0.91666700  0.10774333  1
  S  S91  1  0.45833300  0.04166700  0.10774333  1
  S  S92  1  0.45833300  0.16666700  0.10774333  1
  S  S93  1  0.45833300  0.54166700  0.10774333  1
  S  S94  1  0.45833300  0.66666700  0.10774333  1
  S  S95  1  0.45833300  0.79166700  0.10774333  1
  S  S96  1  0.45833300  0.91666700  0.10774333  1
  S  S97  1  0.58333300  0.04166700  0.10774333  1
  S  S98  1  0.58333300  0.16666700  0.10774333  1
  S  S99  1  0.58333300  0.29166700  0.10774333  1
  S  S100  1  0.58333300  0.41666700  0.10774333  1
  S  S101  1  0.58333300  0.54166700  0.10774333  1
  S  S102  1  0.58333300  0.79166700  0.10774333  1
  S  S103  1  0.70833300  0.04166700  0.10774333  1
  S  S104  1  0.70833300  0.16666700  0.10774333  1
  S  S105  1  0.70833300  0.41666700  0.10774333  1
  S  S106  1  0.70833300  0.54166700  0.10774333  1
  S  S107  1  0.70833300  0.66666700  0.10774333  1
  S  S108  1  0.70833300  0.79166700  0.10774333  1
  S  S109  1  0.70833300  0.91666700  0.10774333  1
  S  S110  1  0.83333300  0.04166700  0.10774333  1
  S  S111  1  0.83333300  0.16666700  0.10774333  1
  S  S112  1  0.83333300  0.29166700  0.10774333  1
  S  S113  1  0.83333300  0.41666700  0.10774333  1
  S  S114  1  0.83333300  0.54166700  0.10774333  1
  S  S115  1  0.83333300  0.66666700  0.10774333  1
  S  S116  1  0.83333300  0.79166700  0.10774333  1
  S  S117  1  0.83333300  0.91666700  0.10774333  1
  S  S118  1  0.95833300  0.04166700  0.10774333  1
  S  S119  1  0.95833300  0.16666700  0.10774333  1
  S  S120  1  0.95833300  0.29166700  0.10774333  1
  S  S121  1  0.95833300  0.41666700  0.10774333  1
  S  S122  1  0.95833300  0.54166700  0.10774333  1
  S  S123  1  0.95833300  0.79166700  0.10774333  1
  S  S124  1  0.95833300  0.91666700  0.10774333  1
  S  S125  1  0.08333300  0.04166700  0.26423177  1
  S  S126  1  0.08333300  0.16666700  0.26423177  1
  S  S127  1  0.08333300  0.29166700  0.26423177  1
  S  S128  1  0.08333300  0.66666700  0.26423177  1
  S  S129  1  0.08333300  0.79166700  0.26423177  1
  S  S130  1  0.08333300  0.91666700  0.26423177  1
  S  S131  1  0.20833300  0.04166700  0.26423177  1
  S  S132  1  0.20833300  0.16666700  0.26423177  1
  S  S133  1  0.20833300  0.29166700  0.26423177  1
  S  S134  1  0.20833300  0.41666700  0.26423177  1
  S  S135  1  0.20833300  0.54166700  0.26423177  1
  S  S136  1  0.20833300  0.66666700  0.26423177  1
  S  S137  1  0.20833300  0.79166700  0.26423177  1
  S  S138  1  0.20833300  0.91666700  0.26423177  1
  S  S139  1  0.33333300  0.04166700  0.26423177  1
  S  S140  1  0.33333300  0.16666700  0.26423177  1
  S  S141  1  0.33333300  0.29166700  0.26423177  1
  S  S142  1  0.33333300  0.41666700  0.26423177  1
  S  S143  1  0.33333300  0.54166700  0.26423177  1
  S  S144  1  0.33333300  0.79166700  0.26423177  1
  S  S145  1  0.33333300  0.91666700  0.26423177  1
  S  S146  1  0.45833300  0.04166700  0.26423177  1
  S  S147  1  0.45833300  0.16666700  0.26423177  1
  S  S148  1  0.45833300  0.29166700  0.26423177  1
  S  S149  1  0.45833300  0.41666700  0.26423177  1
  S  S150  1  0.45833300  0.54166700  0.26423177  1
  S  S151  1  0.45833300  0.66666700  0.26423177  1
  S  S152  1  0.45833300  0.79166700  0.26423177  1
  S  S153  1  0.45833300  0.91666700  0.26423177  1
  S  S154  1  0.58333300  0.04166700  0.26423177  1
  S  S155  1  0.58333300  0.29166700  0.26423177  1
  S  S156  1  0.58333300  0.41666700  0.26423177  1
  S  S157  1  0.58333300  0.54166700  0.26423177  1
  S  S158  1  0.58333300  0.66666700  0.26423177  1
  S  S159  1  0.58333300  0.91666700  0.26423177  1
  S  S160  1  0.70833300  0.04166700  0.26423177  1
  S  S161  1  0.70833300  0.29166700  0.26423177  1
  S  S162  1  0.70833300  0.41666700  0.26423177  1
  S  S163  1  0.70833300  0.54166700  0.26423177  1
  S  S164  1  0.70833300  0.66666700  0.26423177  1
  S  S165  1  0.70833300  0.91666700  0.26423177  1
  S  S166  1  0.83333300  0.04166700  0.26423177  1
  S  S167  1  0.83333300  0.29166700  0.26423177  1
  S  S168  1  0.83333300  0.41666700  0.26423177  1
  S  S169  1  0.83333300  0.54166700  0.26423177  1
  S  S170  1  0.83333300  0.66666700  0.26423177  1
  S  S171  1  0.83333300  0.79166700  0.26423177  1
  S  S172  1  0.95833300  0.04166700  0.26423177  1
  S  S173  1  0.95833300  0.16666700  0.26423177  1
  S  S174  1  0.95833300  0.29166700  0.26423177  1
  S  S175  1  0.95833300  0.41666700  0.26423177  1
  S  S176  1  0.95833300  0.54166700  0.26423177  1
  S  S177  1  0.95833300  0.66666700  0.26423177  1
  S  S178  1  0.95833300  0.79166700  0.26423177  1
  S  S179  1  0.95833300  0.91666700  0.26423177  1
