# generated using pymatgen
data_Ga70Se71
_symmetry_space_group_name_H-M   'P 1'
_cell_length_a   22.91440000
_cell_length_b   22.91439982
_cell_length_c   20.00000000
_cell_angle_alpha   90.00000000
_cell_angle_beta   90.00000000
_cell_angle_gamma   120.00001180
_symmetry_Int_Tables_number   1
_chemical_formula_structural   Ga70Se71
_chemical_formula_sum   'Ga70 Se71'
_cell_volume   9094.47330160
_cell_formula_units_Z   1
loop_
 _symmetry_equiv_pos_site_id
 _symmetry_equiv_pos_as_xyz
  1  'x, y, z'
loop_
 _atom_site_type_symbol
 _atom_site_label
 _atom_site_symmetry_multiplicity
 _atom_site_fract_x
 _atom_site_fract_y
 _atom_site_fract_z
 _atom_site_occupancy
  Ga  Ga0  1  0.11111100  0.22222200  0.38327300  1
  Ga  Ga1  1  0.11111100  0.38888900  0.38327300  1
  Ga  Ga2  1  0.11111100  0.55555600  0.38327300  1
  Ga  Ga3  1  0.11111100  0.72222200  0.38327300  1
  Ga  Ga4  1  0.11111100  0.88888900  0.38327300  1
  Ga  Ga5  1  0.27777800  0.05555600  0.38327300  1
  Ga  Ga6  1  0.27777800  0.22222200  0.38327300  1
  Ga  Ga7  1  0.27777800  0.38888900  0.38327300  1
  Ga  Ga8  1  0.27777800  0.55555600  0.38327300  1
  Ga  Ga9  1  0.27777800  0.72222200  0.38327300  1
  Ga  Ga10  1  0.27777800  0.88888900  0.38327300  1
  Ga  Ga11  1  0.44444400  0.05555600  0.38327300  1
  Ga  Ga12  1  0.44444400  0.22222200  0.38327300  1
  Ga  Ga13  1  0.44444400  0.38888900  0.38327300  1
  Ga  Ga14  1  0.44444400  0.55555600  0.38327300  1
  Ga  Ga15  1  0.44444400  0.72222200  0.38327300  1
  Ga  Ga16  1  0.44444400  0.88888900  0.38327300  1
  Ga  Ga17  1  0.61111100  0.05555600  0.38327300  1
  Ga  Ga18  1  0.61111100  0.22222200  0.38327300  1
  Ga  Ga19  1  0.61111100  0.38888900  0.38327300  1
  Ga  Ga20  1  0.61111100  0.55555600  0.38327300  1
  Ga  Ga21  1  0.61111100  0.72222200  0.38327300  1
  Ga  Ga22  1  0.61111100  0.88888900  0.38327300  1
  Ga  Ga23  1  0.77777800  0.05555600  0.38327300  1
  Ga  Ga24  1  0.77777800  0.22222200  0.38327300  1
  Ga  Ga25  1  0.77777800  0.38888900  0.38327300  1
  Ga  Ga26  1  0.77777800  0.55555600  0.38327300  1
  Ga  Ga27  1  0.77777800  0.72222200  0.38327300  1
  Ga  Ga28  1  0.77777800  0.88888900  0.38327300  1
  Ga  Ga29  1  0.94444400  0.05555600  0.38327300  1
  Ga  Ga30  1  0.94444400  0.22222200  0.38327300  1
  Ga  Ga31  1  0.94444400  0.38888900  0.38327300  1
  Ga  Ga32  1  0.94444400  0.55555600  0.38327300  1
  Ga  Ga33  1  0.94444400  0.72222200  0.38327300  1
  Ga  Ga34  1  0.94444400  0.88888900  0.38327300  1
  Ga  Ga35  1  0.11111100  0.05555600  0.50681700  1
  Ga  Ga36  1  0.11111100  0.22222200  0.50681700  1
  Ga  Ga37  1  0.11111100  0.38888900  0.50681700  1
  Ga  Ga38  1  0.11111100  0.55555600  0.50681700  1
  Ga  Ga39  1  0.11111100  0.72222200  0.50681700  1
  Ga  Ga40  1  0.11111100  0.88888900  0.50681700  1
  Ga  Ga41  1  0.27777800  0.05555600  0.50681700  1
  Ga  Ga42  1  0.27777800  0.22222200  0.50681700  1
  Ga  Ga43  1  0.27777800  0.38888900  0.50681700  1
  Ga  Ga44  1  0.27777800  0.55555600  0.50681700  1
  Ga  Ga45  1  0.27777800  0.72222200  0.50681700  1
  Ga  Ga46  1  0.27777800  0.88888900  0.50681700  1
  Ga  Ga47  1  0.44444400  0.05555600  0.50681700  1
  Ga  Ga48  1  0.44444400  0.22222200  0.50681700  1
  Ga  Ga49  1  0.44444400  0.38888900  0.50681700  1
  Ga  Ga50  1  0.44444400  0.55555600  0.50681700  1
  Ga  Ga51  1  0.44444400  0.72222200  0.50681700  1
  Ga  Ga52  1  0.44444400  0.88888900  0.50681700  1
  Ga  Ga53  1  0.61111100  0.05555600  0.50681700  1
  Ga  Ga54  1  0.61111100  0.22222200  0.50681700  1
  Ga  Ga55  1  0.61111100  0.38888900  0.50681700  1
  Ga  Ga56  1  0.61111100  0.55555600  0.50681700  1
  Ga  Ga57  1  0.61111100  0.88888900  0.50681700  1
  Ga  Ga58  1  0.77777800  0.05555600  0.50681700  1
  Ga  Ga59  1  0.77777800  0.22222200  0.50681700  1
  Ga  Ga60  1  0.77777800  0.38888900  0.50681700  1
  Ga  Ga61  1  0.77777800  0.55555600  0.50681700  1
  Ga  Ga62  1  0.77777800  0.72222200  0.50681700  1
  Ga  Ga63  1  0.77777800  0.88888900  0.50681700  1
  Ga  Ga64  1  0.94444400  0.05555600  0.50681700  1
  Ga  Ga65  1  0.94444400  0.22222200  0.50681700  1
  Ga  Ga66  1  0.94444400  0.38888900  0.50681700  1
  Ga  Ga67  1  0.94444400  0.55555600  0.50681700  1
  Ga  Ga68  1  0.94444400  0.72222200  0.50681700  1
  Ga  Ga69  1  0.94444400  0.88888900  0.50681700  1
  Se  Se70  1  0.05555600  0.11111100  0.56548000  1
  Se  Se71  1  0.05555600  0.27777800  0.56548000  1
  Se  Se72  1  0.05555600  0.44444400  0.56548000  1
  Se  Se73  1  0.05555600  0.61111100  0.56548000  1
  Se  Se74  1  0.05555600  0.77777800  0.56548000  1
  Se  Se75  1  0.05555600  0.94444400  0.56548000  1
  Se  Se76  1  0.22222200  0.11111100  0.56548000  1
  Se  Se77  1  0.22222200  0.27777800  0.56548000  1
  Se  Se78  1  0.22222200  0.44444400  0.56548000  1
  Se  Se79  1  0.22222200  0.61111100  0.56548000  1
  Se  Se80  1  0.22222200  0.77777800  0.56548000  1
  Se  Se81  1  0.22222200  0.94444400  0.56548000  1
  Se  Se82  1  0.38888900  0.11111100  0.56548000  1
  Se  Se83  1  0.38888900  0.27777800  0.56548000  1
  Se  Se84  1  0.38888900  0.44444400  0.56548000  1
  Se  Se85  1  0.38888900  0.61111100  0.56548000  1
  Se  Se86  1  0.38888900  0.77777800  0.56548000  1
  Se  Se87  1  0.38888900  0.94444400  0.56548000  1
  Se  Se88  1  0.55555600  0.11111100  0.56548000  1
  Se  Se89  1  0.55555600  0.27777800  0.56548000  1
  Se  Se90  1  0.55555600  0.44444400  0.56548000  1
  Se  Se91  1  0.55555600  0.61111100  0.56548000  1
  Se  Se92  1  0.55555600  0.77777800  0.56548000  1
  Se  Se93  1  0.55555600  0.94444400  0.56548000  1
  Se  Se94  1  0.72222200  0.11111100  0.56548000  1
  Se  Se95  1  0.72222200  0.27777800  0.56548000  1
  Se  Se96  1  0.72222200  0.44444400  0.56548000  1
  Se  Se97  1  0.72222200  0.61111100  0.56548000  1
  Se  Se98  1  0.72222200  0.77777800  0.56548000  1
  Se  Se99  1  0.72222200  0.94444400  0.56548000  1
  Se  Se100  1  0.88888900  0.11111100  0.56548000  1
  Se  Se101  1  0.88888900  0.27777800  0.56548000  1
  Se  Se102  1  0.88888900  0.44444400  0.56548000  1
  Se  Se103  1  0.88888900  0.61111100  0.56548000  1
  Se  Se104  1  0.88888900  0.77777800  0.56548000  1
  Se  Se105  1  0.88888900  0.94444400  0.56548000  1
  Se  Se106  1  0.05555600  0.11111100  0.32461000  1
  Se  Se107  1  0.05555600  0.27777800  0.32461000  1
  Se  Se108  1  0.05555600  0.44444400  0.32461000  1
  Se  Se109  1  0.05555600  0.61111100  0.32461000  1
  Se  Se110  1  0.05555600  0.77777800  0.32461000  1
  Se  Se111  1  0.05555600  0.94444400  0.32461000  1
  Se  Se112  1  0.22222200  0.11111100  0.32461000  1
  Se  Se113  1  0.22222200  0.27777800  0.32461000  1
  Se  Se114  1  0.22222200  0.44444400  0.32461000  1
  Se  Se115  1  0.22222200  0.61111100  0.32461000  1
  Se  Se116  1  0.22222200  0.77777800  0.32461000  1
  Se  Se117  1  0.22222200  0.94444400  0.32461000  1
  Se  Se118  1  0.38888900  0.11111100  0.32461000  1
  Se  Se119  1  0.38888900  0.27777800  0.32461000  1
  Se  Se120  1  0.38888900  0.44444400  0.32461000  1
  Se  Se121  1  0.38888900  0.61111100  0.32461000  1
  Se  Se122  1  0.38888900  0.77777800  0.32461000  1
  Se  Se123  1  0.38888900  0.94444400  0.32461000  1
  Se  Se124  1  0.55555600  0.11111100  0.32461000  1
  Se  Se125  1  0.55555600  0.27777800  0.32461000  1
  Se  Se126  1  0.55555600  0.44444400  0.32461000  1
  Se  Se127  1  0.55555600  0.61111100  0.32461000  1
  Se  Se128  1  0.55555600  0.77777800  0.32461000  1
  Se  Se129  1  0.55555600  0.94444400  0.32461000  1
  Se  Se130  1  0.72222200  0.11111100  0.32461000  1
  Se  Se131  1  0.72222200  0.27777800  0.32461000  1
  Se  Se132  1  0.72222200  0.44444400  0.32461000  1
  Se  Se133  1  0.72222200  0.61111100  0.32461000  1
  Se  Se134  1  0.72222200  0.77777800  0.32461000  1
  Se  Se135  1  0.72222200  0.94444400  0.32461000  1
  Se  Se136  1  0.88888900  0.11111100  0.32461000  1
  Se  Se137  1  0.88888900  0.27777800  0.32461000  1
  Se  Se138  1  0.88888900  0.61111100  0.32461000  1
  Se  Se139  1  0.88888900  0.77777800  0.32461000  1
  Se  Se140  1  0.88888900  0.94444400  0.32461000  1
