# generated using pymatgen
data_B60CN62
_symmetry_space_group_name_H-M   'P 1'
_cell_length_a   20.09942800
_cell_length_b   20.09942755
_cell_length_c   20.00000000
_cell_angle_alpha   90.00000000
_cell_angle_beta   90.00000000
_cell_angle_gamma   120.00001061
_symmetry_Int_Tables_number   1
_chemical_formula_structural   B60CN62
_chemical_formula_sum   'B60 C1 N62'
_cell_volume   6997.25929435
_cell_formula_units_Z   1
loop_
 _symmetry_equiv_pos_site_id
 _symmetry_equiv_pos_as_xyz
  1  'x, y, z'
loop_
 _atom_site_type_symbol
 _atom_site_label
 _atom_site_symmetry_multiplicity
 _atom_site_fract_x
 _atom_site_fract_y
 _atom_site_fract_z
 _atom_site_occupancy
  B  B0  1  0.04166700  0.08333300  0.19268162  1
  B  B1  1  0.04166700  0.20833300  0.19268162  1
  B  B2  1  0.04166700  0.33333300  0.19268162  1
  B  B3  1  0.04166700  0.45833300  0.19268162  1
  B  B4  1  0.04166700  0.58333300  0.19268162  1
  B  B5  1  0.04166700  0.70833300  0.19268162  1
  B  B6  1  0.04166700  0.83333300  0.19268162  1
  B  B7  1  0.04166700  0.95833300  0.19268162  1
  B  B8  1  0.16666700  0.08333300  0.19268162  1
  B  B9  1  0.16666700  0.20833300  0.19268162  1
  B  B10  1  0.16666700  0.33333300  0.19268162  1
  B  B11  1  0.16666700  0.45833300  0.19268162  1
  B  B12  1  0.16666700  0.70833300  0.19268162  1
  B  B13  1  0.16666700  0.83333300  0.19268162  1
  B  B14  1  0.16666700  0.95833300  0.19268162  1
  B  B15  1  0.29166700  0.20833300  0.19268162  1
  B  B16  1  0.29166700  0.33333300  0.19268162  1
  B  B17  1  0.29166700  0.45833300  0.19268162  1
  B  B18  1  0.29166700  0.58333300  0.19268162  1
  B  B19  1  0.29166700  0.70833300  0.19268162  1
  B  B20  1  0.29166700  0.83333300  0.19268162  1
  B  B21  1  0.29166700  0.95833300  0.19268162  1
  B  B22  1  0.41666700  0.08333300  0.19268162  1
  B  B23  1  0.41666700  0.20833300  0.19268162  1
  B  B24  1  0.41666700  0.33333300  0.19268162  1
  B  B25  1  0.41666700  0.45833300  0.19268162  1
  B  B26  1  0.41666700  0.58333300  0.19268162  1
  B  B27  1  0.41666700  0.70833300  0.19268162  1
  B  B28  1  0.41666700  0.83333300  0.19268162  1
  B  B29  1  0.41666700  0.95833300  0.19268162  1
  B  B30  1  0.54166700  0.08333300  0.19268162  1
  B  B31  1  0.54166700  0.20833300  0.19268162  1
  B  B32  1  0.54166700  0.33333300  0.19268162  1
  B  B33  1  0.54166700  0.45833300  0.19268162  1
  B  B34  1  0.54166700  0.58333300  0.19268162  1
  B  B35  1  0.54166700  0.70833300  0.19268162  1
  B  B36  1  0.54166700  0.83333300  0.19268162  1
  B  B37  1  0.54166700  0.95833300  0.19268162  1
  B  B38  1  0.66666700  0.08333300  0.19268162  1
  B  B39  1  0.66666700  0.20833300  0.19268162  1
  B  B40  1  0.66666700  0.33333300  0.19268162  1
  B  B41  1  0.66666700  0.58333300  0.19268162  1
  B  B42  1  0.66666700  0.70833300  0.19268162  1
  B  B43  1  0.66666700  0.83333300  0.19268162  1
  B  B44  1  0.66666700  0.95833300  0.19268162  1
  B  B45  1  0.79166700  0.08333300  0.19268162  1
  B  B46  1  0.79166700  0.20833300  0.19268162  1
  B  B47  1  0.79166700  0.33333300  0.19268162  1
  B  B48  1  0.79166700  0.45833300  0.19268162  1
  B  B49  1  0.79166700  0.58333300  0.19268162  1
  B  B50  1  0.79166700  0.70833300  0.19268162  1
  B  B51  1  0.79166700  0.83333300  0.19268162  1
  B  B52  1  0.79166700  0.95833300  0.19268162  1
  B  B53  1  0.91666700  0.08333300  0.19268162  1
  B  B54  1  0.91666700  0.20833300  0.19268162  1
  B  B55  1  0.91666700  0.33333300  0.19268162  1
  B  B56  1  0.91666700  0.45833300  0.19268162  1
  B  B57  1  0.91666700  0.58333300  0.19268162  1
  B  B58  1  0.91666700  0.83333300  0.19268162  1
  B  B59  1  0.91666700  0.95833300  0.19268162  1
  C  C60  1  0.16666700  0.58333300  0.19268162  1
  N  N61  1  0.08333300  0.04166700  0.19268162  1
  N  N62  1  0.08333300  0.16666700  0.19268162  1
  N  N63  1  0.08333300  0.29166700  0.19268162  1
  N  N64  1  0.08333300  0.41666700  0.19268162  1
  N  N65  1  0.08333300  0.54166700  0.19268162  1
  N  N66  1  0.08333300  0.66666700  0.19268162  1
  N  N67  1  0.08333300  0.79166700  0.19268162  1
  N  N68  1  0.08333300  0.91666700  0.19268162  1
  N  N69  1  0.20833300  0.04166700  0.19268162  1
  N  N70  1  0.20833300  0.16666700  0.19268162  1
  N  N71  1  0.20833300  0.29166700  0.19268162  1
  N  N72  1  0.20833300  0.41666700  0.19268162  1
  N  N73  1  0.20833300  0.54166700  0.19268162  1
  N  N74  1  0.20833300  0.66666700  0.19268162  1
  N  N75  1  0.20833300  0.79166700  0.19268162  1
  N  N76  1  0.20833300  0.91666700  0.19268162  1
  N  N77  1  0.33333300  0.04166700  0.19268162  1
  N  N78  1  0.33333300  0.16666700  0.19268162  1
  N  N79  1  0.33333300  0.29166700  0.19268162  1
  N  N80  1  0.33333300  0.41666700  0.19268162  1
  N  N81  1  0.33333300  0.54166700  0.19268162  1
  N  N82  1  0.33333300  0.66666700  0.19268162  1
  N  N83  1  0.33333300  0.79166700  0.19268162  1
  N  N84  1  0.33333300  0.91666700  0.19268162  1
  N  N85  1  0.45833300  0.04166700  0.19268162  1
  N  N86  1  0.45833300  0.16666700  0.19268162  1
  N  N87  1  0.45833300  0.29166700  0.19268162  1
  N  N88  1  0.45833300  0.41666700  0.19268162  1
  N  N89  1  0.45833300  0.54166700  0.19268162  1
  N  N90  1  0.45833300  0.66666700  0.19268162  1
  N  N91  1  0.45833300  0.79166700  0.19268162  1
  N  N92  1  0.45833300  0.91666700  0.19268162  1
  N  N93  1  0.58333300  0.04166700  0.19268162  1
  N  N94  1  0.58333300  0.16666700  0.19268162  1
  N  N95  1  0.58333300  0.29166700  0.19268162  1
  N  N96  1  0.58333300  0.54166700  0.19268162  1
  N  N97  1  0.58333300  0.66666700  0.19268162  1
  N  N98  1  0.58333300  0.79166700  0.19268162  1
  N  N99  1  0.58333300  0.91666700  0.19268162  1
  N  N100  1  0.70833300  0.04166700  0.19268162  1
  N  N101  1  0.70833300  0.16666700  0.19268162  1
  N  N102  1  0.70833300  0.29166700  0.19268162  1
  N  N103  1  0.70833300  0.41666700  0.19268162  1
  N  N104  1  0.70833300  0.54166700  0.19268162  1
  N  N105  1  0.70833300  0.66666700  0.19268162  1
  N  N106  1  0.70833300  0.79166700  0.19268162  1
  N  N107  1  0.70833300  0.91666700  0.19268162  1
  N  N108  1  0.83333300  0.04166700  0.19268162  1
  N  N109  1  0.83333300  0.16666700  0.19268162  1
  N  N110  1  0.83333300  0.41666700  0.19268162  1
  N  N111  1  0.83333300  0.54166700  0.19268162  1
  N  N112  1  0.83333300  0.66666700  0.19268162  1
  N  N113  1  0.83333300  0.79166700  0.19268162  1
  N  N114  1  0.83333300  0.91666700  0.19268162  1
  N  N115  1  0.95833300  0.04166700  0.19268162  1
  N  N116  1  0.95833300  0.16666700  0.19268162  1
  N  N117  1  0.95833300  0.29166700  0.19268162  1
  N  N118  1  0.95833300  0.41666700  0.19268162  1
  N  N119  1  0.95833300  0.54166700  0.19268162  1
  N  N120  1  0.95833300  0.66666700  0.19268162  1
  N  N121  1  0.95833300  0.79166700  0.19268162  1
  N  N122  1  0.95833300  0.91666700  0.19268162  1
