# generated using pymatgen
data_WSe2
_symmetry_space_group_name_H-M   'P 1'
_cell_length_a   26.61655608
_cell_length_b   26.61655608
_cell_length_c   20.00000000
_cell_angle_alpha   90.00000000
_cell_angle_beta   90.00000000
_cell_angle_gamma   120.00000000
_symmetry_Int_Tables_number   1
_chemical_formula_structural   WSe2
_chemical_formula_sum   'W64 Se128'
_cell_volume   12270.55905861
_cell_formula_units_Z   64
loop_
 _symmetry_equiv_pos_site_id
 _symmetry_equiv_pos_as_xyz
  1  'x, y, z'
loop_
 _atom_site_type_symbol
 _atom_site_label
 _atom_site_symmetry_multiplicity
 _atom_site_fract_x
 _atom_site_fract_y
 _atom_site_fract_z
 _atom_site_occupancy
  W  W0  1  0.04166667  0.08333333  0.18836189  1.0
  W  W0  1  0.04166667  0.20833333  0.18836189  1.0
  W  W0  1  0.04166667  0.33333333  0.18836189  1.0
  W  W0  1  0.04166667  0.45833333  0.18836189  1.0
  W  W0  1  0.04166667  0.58333333  0.18836189  1.0
  W  W0  1  0.04166667  0.70833333  0.18836189  1.0
  W  W0  1  0.04166667  0.83333333  0.18836189  1.0
  W  W0  1  0.04166667  0.95833333  0.18836189  1.0
  W  W0  1  0.16666667  0.08333333  0.18836189  1.0
  W  W0  1  0.16666667  0.20833333  0.18836189  1.0
  W  W0  1  0.16666667  0.33333333  0.18836189  1.0
  W  W0  1  0.16666667  0.45833333  0.18836189  1.0
  W  W0  1  0.16666667  0.58333333  0.18836189  1.0
  W  W0  1  0.16666667  0.70833333  0.18836189  1.0
  W  W0  1  0.16666667  0.83333333  0.18836189  1.0
  W  W0  1  0.16666667  0.95833333  0.18836189  1.0
  W  W0  1  0.29166667  0.08333333  0.18836189  1.0
  W  W0  1  0.29166667  0.20833333  0.18836189  1.0
  W  W0  1  0.29166667  0.33333333  0.18836189  1.0
  W  W0  1  0.29166667  0.45833333  0.18836189  1.0
  W  W0  1  0.29166667  0.58333333  0.18836189  1.0
  W  W0  1  0.29166667  0.70833333  0.18836189  1.0
  W  W0  1  0.29166667  0.83333333  0.18836189  1.0
  W  W0  1  0.29166667  0.95833333  0.18836189  1.0
  W  W0  1  0.41666667  0.08333333  0.18836189  1.0
  W  W0  1  0.41666667  0.20833333  0.18836189  1.0
  W  W0  1  0.41666667  0.33333333  0.18836189  1.0
  W  W0  1  0.41666667  0.45833333  0.18836189  1.0
  W  W0  1  0.41666667  0.58333333  0.18836189  1.0
  W  W0  1  0.41666667  0.70833333  0.18836189  1.0
  W  W0  1  0.41666667  0.83333333  0.18836189  1.0
  W  W0  1  0.41666667  0.95833333  0.18836189  1.0
  W  W0  1  0.54166667  0.08333333  0.18836189  1.0
  W  W0  1  0.54166667  0.20833333  0.18836189  1.0
  W  W0  1  0.54166667  0.33333333  0.18836189  1.0
  W  W0  1  0.54166667  0.45833333  0.18836189  1.0
  W  W0  1  0.54166667  0.58333333  0.18836189  1.0
  W  W0  1  0.54166667  0.70833333  0.18836189  1.0
  W  W0  1  0.54166667  0.83333333  0.18836189  1.0
  W  W0  1  0.54166667  0.95833333  0.18836189  1.0
  W  W0  1  0.66666667  0.08333333  0.18836189  1.0
  W  W0  1  0.66666667  0.20833333  0.18836189  1.0
  W  W0  1  0.66666667  0.33333333  0.18836189  1.0
  W  W0  1  0.66666667  0.45833333  0.18836189  1.0
  W  W0  1  0.66666667  0.58333333  0.18836189  1.0
  W  W0  1  0.66666667  0.70833333  0.18836189  1.0
  W  W0  1  0.66666667  0.83333333  0.18836189  1.0
  W  W0  1  0.66666667  0.95833333  0.18836189  1.0
  W  W0  1  0.79166667  0.08333333  0.18836189  1.0
  W  W0  1  0.79166667  0.20833333  0.18836189  1.0
  W  W0  1  0.79166667  0.33333333  0.18836189  1.0
  W  W0  1  0.79166667  0.45833333  0.18836189  1.0
  W  W0  1  0.79166667  0.58333333  0.18836189  1.0
  W  W0  1  0.79166667  0.70833333  0.18836189  1.0
  W  W0  1  0.79166667  0.83333333  0.18836189  1.0
  W  W0  1  0.79166667  0.95833333  0.18836189  1.0
  W  W0  1  0.91666667  0.08333333  0.18836189  1.0
  W  W0  1  0.91666667  0.20833333  0.18836189  1.0
  W  W0  1  0.91666667  0.33333333  0.18836189  1.0
  W  W0  1  0.91666667  0.45833333  0.18836189  1.0
  W  W0  1  0.91666667  0.58333333  0.18836189  1.0
  W  W0  1  0.91666667  0.70833333  0.18836189  1.0
  W  W0  1  0.91666667  0.83333333  0.18836189  1.0
  W  W0  1  0.91666667  0.95833333  0.18836189  1.0
  Se  Se1  1  0.08333333  0.04166667  0.27242328  1.0
  Se  Se1  1  0.08333333  0.16666667  0.27242328  1.0
  Se  Se1  1  0.08333333  0.29166667  0.27242328  1.0
  Se  Se1  1  0.08333333  0.41666667  0.27242328  1.0
  Se  Se1  1  0.08333333  0.54166667  0.27242328  1.0
  Se  Se1  1  0.08333333  0.66666667  0.27242328  1.0
  Se  Se1  1  0.08333333  0.79166667  0.27242328  1.0
  Se  Se1  1  0.08333333  0.91666667  0.27242328  1.0
  Se  Se1  1  0.20833333  0.04166667  0.27242328  1.0
  Se  Se1  1  0.20833333  0.16666667  0.27242328  1.0
  Se  Se1  1  0.20833333  0.29166667  0.27242328  1.0
  Se  Se1  1  0.20833333  0.41666667  0.27242328  1.0
  Se  Se1  1  0.20833333  0.54166667  0.27242328  1.0
  Se  Se1  1  0.20833333  0.66666667  0.27242328  1.0
  Se  Se1  1  0.20833333  0.79166667  0.27242328  1.0
  Se  Se1  1  0.20833333  0.91666667  0.27242328  1.0
  Se  Se1  1  0.33333333  0.04166667  0.27242328  1.0
  Se  Se1  1  0.33333333  0.16666667  0.27242328  1.0
  Se  Se1  1  0.33333333  0.29166667  0.27242328  1.0
  Se  Se1  1  0.33333333  0.41666667  0.27242328  1.0
  Se  Se1  1  0.33333333  0.54166667  0.27242328  1.0
  Se  Se1  1  0.33333333  0.66666667  0.27242328  1.0
  Se  Se1  1  0.33333333  0.79166667  0.27242328  1.0
  Se  Se1  1  0.33333333  0.91666667  0.27242328  1.0
  Se  Se1  1  0.45833333  0.04166667  0.27242328  1.0
  Se  Se1  1  0.45833333  0.16666667  0.27242328  1.0
  Se  Se1  1  0.45833333  0.29166667  0.27242328  1.0
  Se  Se1  1  0.45833333  0.41666667  0.27242328  1.0
  Se  Se1  1  0.45833333  0.54166667  0.27242328  1.0
  Se  Se1  1  0.45833333  0.66666667  0.27242328  1.0
  Se  Se1  1  0.45833333  0.79166667  0.27242328  1.0
  Se  Se1  1  0.45833333  0.91666667  0.27242328  1.0
  Se  Se1  1  0.58333333  0.04166667  0.27242328  1.0
  Se  Se1  1  0.58333333  0.16666667  0.27242328  1.0
  Se  Se1  1  0.58333333  0.29166667  0.27242328  1.0
  Se  Se1  1  0.58333333  0.41666667  0.27242328  1.0
  Se  Se1  1  0.58333333  0.54166667  0.27242328  1.0
  Se  Se1  1  0.58333333  0.66666667  0.27242328  1.0
  Se  Se1  1  0.58333333  0.79166667  0.27242328  1.0
  Se  Se1  1  0.58333333  0.91666667  0.27242328  1.0
  Se  Se1  1  0.70833333  0.04166667  0.27242328  1.0
  Se  Se1  1  0.70833333  0.16666667  0.27242328  1.0
  Se  Se1  1  0.70833333  0.29166667  0.27242328  1.0
  Se  Se1  1  0.70833333  0.41666667  0.27242328  1.0
  Se  Se1  1  0.70833333  0.54166667  0.27242328  1.0
  Se  Se1  1  0.70833333  0.66666667  0.27242328  1.0
  Se  Se1  1  0.70833333  0.79166667  0.27242328  1.0
  Se  Se1  1  0.70833333  0.91666667  0.27242328  1.0
  Se  Se1  1  0.83333333  0.04166667  0.27242328  1.0
  Se  Se1  1  0.83333333  0.16666667  0.27242328  1.0
  Se  Se1  1  0.83333333  0.29166667  0.27242328  1.0
  Se  Se1  1  0.83333333  0.41666667  0.27242328  1.0
  Se  Se1  1  0.83333333  0.54166667  0.27242328  1.0
  Se  Se1  1  0.83333333  0.66666667  0.27242328  1.0
  Se  Se1  1  0.83333333  0.79166667  0.27242328  1.0
  Se  Se1  1  0.83333333  0.91666667  0.27242328  1.0
  Se  Se1  1  0.95833333  0.04166667  0.27242328  1.0
  Se  Se1  1  0.95833333  0.16666667  0.27242328  1.0
  Se  Se1  1  0.95833333  0.29166667  0.27242328  1.0
  Se  Se1  1  0.95833333  0.41666667  0.27242328  1.0
  Se  Se1  1  0.95833333  0.54166667  0.27242328  1.0
  Se  Se1  1  0.95833333  0.66666667  0.27242328  1.0
  Se  Se1  1  0.95833333  0.79166667  0.27242328  1.0
  Se  Se1  1  0.95833333  0.91666667  0.27242328  1.0
  Se  Se2  1  0.08333333  0.04166667  0.10430050  1.0
  Se  Se2  1  0.08333333  0.16666667  0.10430050  1.0
  Se  Se2  1  0.08333333  0.29166667  0.10430050  1.0
  Se  Se2  1  0.08333333  0.41666667  0.10430050  1.0
  Se  Se2  1  0.08333333  0.54166667  0.10430050  1.0
  Se  Se2  1  0.08333333  0.66666667  0.10430050  1.0
  Se  Se2  1  0.08333333  0.79166667  0.10430050  1.0
  Se  Se2  1  0.08333333  0.91666667  0.10430050  1.0
  Se  Se2  1  0.20833333  0.04166667  0.10430050  1.0
  Se  Se2  1  0.20833333  0.16666667  0.10430050  1.0
  Se  Se2  1  0.20833333  0.29166667  0.10430050  1.0
  Se  Se2  1  0.20833333  0.41666667  0.10430050  1.0
  Se  Se2  1  0.20833333  0.54166667  0.10430050  1.0
  Se  Se2  1  0.20833333  0.66666667  0.10430050  1.0
  Se  Se2  1  0.20833333  0.79166667  0.10430050  1.0
  Se  Se2  1  0.20833333  0.91666667  0.10430050  1.0
  Se  Se2  1  0.33333333  0.04166667  0.10430050  1.0
  Se  Se2  1  0.33333333  0.16666667  0.10430050  1.0
  Se  Se2  1  0.33333333  0.29166667  0.10430050  1.0
  Se  Se2  1  0.33333333  0.41666667  0.10430050  1.0
  Se  Se2  1  0.33333333  0.54166667  0.10430050  1.0
  Se  Se2  1  0.33333333  0.66666667  0.10430050  1.0
  Se  Se2  1  0.33333333  0.79166667  0.10430050  1.0
  Se  Se2  1  0.33333333  0.91666667  0.10430050  1.0
  Se  Se2  1  0.45833333  0.04166667  0.10430050  1.0
  Se  Se2  1  0.45833333  0.16666667  0.10430050  1.0
  Se  Se2  1  0.45833333  0.29166667  0.10430050  1.0
  Se  Se2  1  0.45833333  0.41666667  0.10430050  1.0
  Se  Se2  1  0.45833333  0.54166667  0.10430050  1.0
  Se  Se2  1  0.45833333  0.66666667  0.10430050  1.0
  Se  Se2  1  0.45833333  0.79166667  0.10430050  1.0
  Se  Se2  1  0.45833333  0.91666667  0.10430050  1.0
  Se  Se2  1  0.58333333  0.04166667  0.10430050  1.0
  Se  Se2  1  0.58333333  0.16666667  0.10430050  1.0
  Se  Se2  1  0.58333333  0.29166667  0.10430050  1.0
  Se  Se2  1  0.58333333  0.41666667  0.10430050  1.0
  Se  Se2  1  0.58333333  0.54166667  0.10430050  1.0
  Se  Se2  1  0.58333333  0.66666667  0.10430050  1.0
  Se  Se2  1  0.58333333  0.79166667  0.10430050  1.0
  Se  Se2  1  0.58333333  0.91666667  0.10430050  1.0
  Se  Se2  1  0.70833333  0.04166667  0.10430050  1.0
  Se  Se2  1  0.70833333  0.16666667  0.10430050  1.0
  Se  Se2  1  0.70833333  0.29166667  0.10430050  1.0
  Se  Se2  1  0.70833333  0.41666667  0.10430050  1.0
  Se  Se2  1  0.70833333  0.54166667  0.10430050  1.0
  Se  Se2  1  0.70833333  0.66666667  0.10430050  1.0
  Se  Se2  1  0.70833333  0.79166667  0.10430050  1.0
  Se  Se2  1  0.70833333  0.91666667  0.10430050  1.0
  Se  Se2  1  0.83333333  0.04166667  0.10430050  1.0
  Se  Se2  1  0.83333333  0.16666667  0.10430050  1.0
  Se  Se2  1  0.83333333  0.29166667  0.10430050  1.0
  Se  Se2  1  0.83333333  0.41666667  0.10430050  1.0
  Se  Se2  1  0.83333333  0.54166667  0.10430050  1.0
  Se  Se2  1  0.83333333  0.66666667  0.10430050  1.0
  Se  Se2  1  0.83333333  0.79166667  0.10430050  1.0
  Se  Se2  1  0.83333333  0.91666667  0.10430050  1.0
  Se  Se2  1  0.95833333  0.04166667  0.10430050  1.0
  Se  Se2  1  0.95833333  0.16666667  0.10430050  1.0
  Se  Se2  1  0.95833333  0.29166667  0.10430050  1.0
  Se  Se2  1  0.95833333  0.41666667  0.10430050  1.0
  Se  Se2  1  0.95833333  0.54166667  0.10430050  1.0
  Se  Se2  1  0.95833333  0.66666667  0.10430050  1.0
  Se  Se2  1  0.95833333  0.79166667  0.10430050  1.0
  Se  Se2  1  0.95833333  0.91666667  0.10430050  1.0
