# generated using pymatgen
data_GaSe
_symmetry_space_group_name_H-M   'P 1'
_cell_length_a   22.91440026
_cell_length_b   22.91440026
_cell_length_c   20.00000000
_cell_angle_alpha   90.00000000
_cell_angle_beta   90.00000000
_cell_angle_gamma   120.00001238
_symmetry_Int_Tables_number   1
_chemical_formula_structural   GaSe
_chemical_formula_sum   'Ga72 Se72'
_cell_volume   9094.47352489
_cell_formula_units_Z   72
loop_
 _symmetry_equiv_pos_site_id
 _symmetry_equiv_pos_as_xyz
  1  'x, y, z'
loop_
 _atom_site_type_symbol
 _atom_site_label
 _atom_site_symmetry_multiplicity
 _atom_site_fract_x
 _atom_site_fract_y
 _atom_site_fract_z
 _atom_site_occupancy
  Ga  Ga0  1  0.11111111  0.05555556  0.38327267  1.0
  Ga  Ga0  1  0.11111111  0.22222222  0.38327267  1.0
  Ga  Ga0  1  0.11111111  0.38888889  0.38327267  1.0
  Ga  Ga0  1  0.11111111  0.55555556  0.38327267  1.0
  Ga  Ga0  1  0.11111111  0.72222222  0.38327267  1.0
  Ga  Ga0  1  0.11111111  0.88888889  0.38327267  1.0
  Ga  Ga0  1  0.27777778  0.05555556  0.38327267  1.0
  Ga  Ga0  1  0.27777778  0.22222222  0.38327267  1.0
  Ga  Ga0  1  0.27777778  0.38888889  0.38327267  1.0
  Ga  Ga0  1  0.27777778  0.55555556  0.38327267  1.0
  Ga  Ga0  1  0.27777778  0.72222222  0.38327267  1.0
  Ga  Ga0  1  0.27777778  0.88888889  0.38327267  1.0
  Ga  Ga0  1  0.44444444  0.05555556  0.38327267  1.0
  Ga  Ga0  1  0.44444444  0.22222222  0.38327267  1.0
  Ga  Ga0  1  0.44444444  0.38888889  0.38327267  1.0
  Ga  Ga0  1  0.44444444  0.55555556  0.38327267  1.0
  Ga  Ga0  1  0.44444444  0.72222222  0.38327267  1.0
  Ga  Ga0  1  0.44444444  0.88888889  0.38327267  1.0
  Ga  Ga0  1  0.61111111  0.05555556  0.38327267  1.0
  Ga  Ga0  1  0.61111111  0.22222222  0.38327267  1.0
  Ga  Ga0  1  0.61111111  0.38888889  0.38327267  1.0
  Ga  Ga0  1  0.61111111  0.55555556  0.38327267  1.0
  Ga  Ga0  1  0.61111111  0.72222222  0.38327267  1.0
  Ga  Ga0  1  0.61111111  0.88888889  0.38327267  1.0
  Ga  Ga0  1  0.77777778  0.05555556  0.38327267  1.0
  Ga  Ga0  1  0.77777778  0.22222222  0.38327267  1.0
  Ga  Ga0  1  0.77777778  0.38888889  0.38327267  1.0
  Ga  Ga0  1  0.77777778  0.55555556  0.38327267  1.0
  Ga  Ga0  1  0.77777778  0.72222222  0.38327267  1.0
  Ga  Ga0  1  0.77777778  0.88888889  0.38327267  1.0
  Ga  Ga0  1  0.94444444  0.05555556  0.38327267  1.0
  Ga  Ga0  1  0.94444444  0.22222222  0.38327267  1.0
  Ga  Ga0  1  0.94444444  0.38888889  0.38327267  1.0
  Ga  Ga0  1  0.94444444  0.55555556  0.38327267  1.0
  Ga  Ga0  1  0.94444444  0.72222222  0.38327267  1.0
  Ga  Ga0  1  0.94444444  0.88888889  0.38327267  1.0
  Ga  Ga1  1  0.11111111  0.05555556  0.50681713  1.0
  Ga  Ga1  1  0.11111111  0.22222222  0.50681713  1.0
  Ga  Ga1  1  0.11111111  0.38888889  0.50681713  1.0
  Ga  Ga1  1  0.11111111  0.55555556  0.50681713  1.0
  Ga  Ga1  1  0.11111111  0.72222222  0.50681713  1.0
  Ga  Ga1  1  0.11111111  0.88888889  0.50681713  1.0
  Ga  Ga1  1  0.27777778  0.05555556  0.50681713  1.0
  Ga  Ga1  1  0.27777778  0.22222222  0.50681713  1.0
  Ga  Ga1  1  0.27777778  0.38888889  0.50681713  1.0
  Ga  Ga1  1  0.27777778  0.55555556  0.50681713  1.0
  Ga  Ga1  1  0.27777778  0.72222222  0.50681713  1.0
  Ga  Ga1  1  0.27777778  0.88888889  0.50681713  1.0
  Ga  Ga1  1  0.44444444  0.05555556  0.50681713  1.0
  Ga  Ga1  1  0.44444444  0.22222222  0.50681713  1.0
  Ga  Ga1  1  0.44444444  0.38888889  0.50681713  1.0
  Ga  Ga1  1  0.44444444  0.55555556  0.50681713  1.0
  Ga  Ga1  1  0.44444444  0.72222222  0.50681713  1.0
  Ga  Ga1  1  0.44444444  0.88888889  0.50681713  1.0
  Ga  Ga1  1  0.61111111  0.05555556  0.50681713  1.0
  Ga  Ga1  1  0.61111111  0.22222222  0.50681713  1.0
  Ga  Ga1  1  0.61111111  0.38888889  0.50681713  1.0
  Ga  Ga1  1  0.61111111  0.55555556  0.50681713  1.0
  Ga  Ga1  1  0.61111111  0.72222222  0.50681713  1.0
  Ga  Ga1  1  0.61111111  0.88888889  0.50681713  1.0
  Ga  Ga1  1  0.77777778  0.05555556  0.50681713  1.0
  Ga  Ga1  1  0.77777778  0.22222222  0.50681713  1.0
  Ga  Ga1  1  0.77777778  0.38888889  0.50681713  1.0
  Ga  Ga1  1  0.77777778  0.55555556  0.50681713  1.0
  Ga  Ga1  1  0.77777778  0.72222222  0.50681713  1.0
  Ga  Ga1  1  0.77777778  0.88888889  0.50681713  1.0
  Ga  Ga1  1  0.94444444  0.05555556  0.50681713  1.0
  Ga  Ga1  1  0.94444444  0.22222222  0.50681713  1.0
  Ga  Ga1  1  0.94444444  0.38888889  0.50681713  1.0
  Ga  Ga1  1  0.94444444  0.55555556  0.50681713  1.0
  Ga  Ga1  1  0.94444444  0.72222222  0.50681713  1.0
  Ga  Ga1  1  0.94444444  0.88888889  0.50681713  1.0
  Se  Se2  1  0.05555556  0.11111111  0.56548028  1.0
  Se  Se2  1  0.05555556  0.27777778  0.56548028  1.0
  Se  Se2  1  0.05555556  0.44444444  0.56548028  1.0
  Se  Se2  1  0.05555556  0.61111111  0.56548028  1.0
  Se  Se2  1  0.05555556  0.77777778  0.56548028  1.0
  Se  Se2  1  0.05555556  0.94444444  0.56548028  1.0
  Se  Se2  1  0.22222222  0.11111111  0.56548028  1.0
  Se  Se2  1  0.22222222  0.27777778  0.56548028  1.0
  Se  Se2  1  0.22222222  0.44444444  0.56548028  1.0
  Se  Se2  1  0.22222222  0.61111111  0.56548028  1.0
  Se  Se2  1  0.22222222  0.77777778  0.56548028  1.0
  Se  Se2  1  0.22222222  0.94444444  0.56548028  1.0
  Se  Se2  1  0.38888889  0.11111111  0.56548028  1.0
  Se  Se2  1  0.38888889  0.27777778  0.56548028  1.0
  Se  Se2  1  0.38888889  0.44444444  0.56548028  1.0
  Se  Se2  1  0.38888889  0.61111111  0.56548028  1.0
  Se  Se2  1  0.38888889  0.77777778  0.56548028  1.0
  Se  Se2  1  0.38888889  0.94444444  0.56548028  1.0
  Se  Se2  1  0.55555556  0.11111111  0.56548028  1.0
  Se  Se2  1  0.55555556  0.27777778  0.56548028  1.0
  Se  Se2  1  0.55555556  0.44444444  0.56548028  1.0
  Se  Se2  1  0.55555556  0.61111111  0.56548028  1.0
  Se  Se2  1  0.55555556  0.77777778  0.56548028  1.0
  Se  Se2  1  0.55555556  0.94444444  0.56548028  1.0
  Se  Se2  1  0.72222222  0.11111111  0.56548028  1.0
  Se  Se2  1  0.72222222  0.27777778  0.56548028  1.0
  Se  Se2  1  0.72222222  0.44444444  0.56548028  1.0
  Se  Se2  1  0.72222222  0.61111111  0.56548028  1.0
  Se  Se2  1  0.72222222  0.77777778  0.56548028  1.0
  Se  Se2  1  0.72222222  0.94444444  0.56548028  1.0
  Se  Se2  1  0.88888889  0.11111111  0.56548028  1.0
  Se  Se2  1  0.88888889  0.27777778  0.56548028  1.0
  Se  Se2  1  0.88888889  0.44444444  0.56548028  1.0
  Se  Se2  1  0.88888889  0.61111111  0.56548028  1.0
  Se  Se2  1  0.88888889  0.77777778  0.56548028  1.0
  Se  Se2  1  0.88888889  0.94444444  0.56548028  1.0
  Se  Se3  1  0.05555556  0.11111111  0.32460952  1.0
  Se  Se3  1  0.05555556  0.27777778  0.32460952  1.0
  Se  Se3  1  0.05555556  0.44444444  0.32460952  1.0
  Se  Se3  1  0.05555556  0.61111111  0.32460952  1.0
  Se  Se3  1  0.05555556  0.77777778  0.32460952  1.0
  Se  Se3  1  0.05555556  0.94444444  0.32460952  1.0
  Se  Se3  1  0.22222222  0.11111111  0.32460952  1.0
  Se  Se3  1  0.22222222  0.27777778  0.32460952  1.0
  Se  Se3  1  0.22222222  0.44444444  0.32460952  1.0
  Se  Se3  1  0.22222222  0.61111111  0.32460952  1.0
  Se  Se3  1  0.22222222  0.77777778  0.32460952  1.0
  Se  Se3  1  0.22222222  0.94444444  0.32460952  1.0
  Se  Se3  1  0.38888889  0.11111111  0.32460952  1.0
  Se  Se3  1  0.38888889  0.27777778  0.32460952  1.0
  Se  Se3  1  0.38888889  0.44444444  0.32460952  1.0
  Se  Se3  1  0.38888889  0.61111111  0.32460952  1.0
  Se  Se3  1  0.38888889  0.77777778  0.32460952  1.0
  Se  Se3  1  0.38888889  0.94444444  0.32460952  1.0
  Se  Se3  1  0.55555556  0.11111111  0.32460952  1.0
  Se  Se3  1  0.55555556  0.27777778  0.32460952  1.0
  Se  Se3  1  0.55555556  0.44444444  0.32460952  1.0
  Se  Se3  1  0.55555556  0.61111111  0.32460952  1.0
  Se  Se3  1  0.55555556  0.77777778  0.32460952  1.0
  Se  Se3  1  0.55555556  0.94444444  0.32460952  1.0
  Se  Se3  1  0.72222222  0.11111111  0.32460952  1.0
  Se  Se3  1  0.72222222  0.27777778  0.32460952  1.0
  Se  Se3  1  0.72222222  0.44444444  0.32460952  1.0
  Se  Se3  1  0.72222222  0.61111111  0.32460952  1.0
  Se  Se3  1  0.72222222  0.77777778  0.32460952  1.0
  Se  Se3  1  0.72222222  0.94444444  0.32460952  1.0
  Se  Se3  1  0.88888889  0.11111111  0.32460952  1.0
  Se  Se3  1  0.88888889  0.27777778  0.32460952  1.0
  Se  Se3  1  0.88888889  0.44444444  0.32460952  1.0
  Se  Se3  1  0.88888889  0.61111111  0.32460952  1.0
  Se  Se3  1  0.88888889  0.77777778  0.32460952  1.0
  Se  Se3  1  0.88888889  0.94444444  0.32460952  1.0
