# generated using pymatgen
data_P
_symmetry_space_group_name_H-M   'P 1'
_cell_length_a   19.79950800
_cell_length_b   27.60555600
_cell_length_c   20.00000000
_cell_angle_alpha   90.00000000
_cell_angle_beta   90.00000000
_cell_angle_gamma   90.00000000
_symmetry_Int_Tables_number   1
_chemical_formula_structural   P
_chemical_formula_sum   P144
_cell_volume   10931.52853733
_cell_formula_units_Z   144
loop_
 _symmetry_equiv_pos_site_id
 _symmetry_equiv_pos_as_xyz
  1  'x, y, z'
loop_
 _atom_site_type_symbol
 _atom_site_label
 _atom_site_symmetry_multiplicity
 _atom_site_fract_x
 _atom_site_fract_y
 _atom_site_fract_z
 _atom_site_occupancy
  P  P0  1  0.00000000  0.09809283  0.20912339  1.0
  P  P0  1  0.00000000  0.26475950  0.20912339  1.0
  P  P0  1  0.00000000  0.43142617  0.20912339  1.0
  P  P0  1  0.00000000  0.59809283  0.20912339  1.0
  P  P0  1  0.00000000  0.76475950  0.20912339  1.0
  P  P0  1  0.00000000  0.93142617  0.20912339  1.0
  P  P0  1  0.16666667  0.09809283  0.20912339  1.0
  P  P0  1  0.16666667  0.26475950  0.20912339  1.0
  P  P0  1  0.16666667  0.43142617  0.20912339  1.0
  P  P0  1  0.16666667  0.59809283  0.20912339  1.0
  P  P0  1  0.16666667  0.76475950  0.20912339  1.0
  P  P0  1  0.16666667  0.93142617  0.20912339  1.0
  P  P0  1  0.33333333  0.09809283  0.20912339  1.0
  P  P0  1  0.33333333  0.26475950  0.20912339  1.0
  P  P0  1  0.33333333  0.43142617  0.20912339  1.0
  P  P0  1  0.33333333  0.59809283  0.20912339  1.0
  P  P0  1  0.33333333  0.76475950  0.20912339  1.0
  P  P0  1  0.33333333  0.93142617  0.20912339  1.0
  P  P0  1  0.50000000  0.09809283  0.20912339  1.0
  P  P0  1  0.50000000  0.26475950  0.20912339  1.0
  P  P0  1  0.50000000  0.43142617  0.20912339  1.0
  P  P0  1  0.50000000  0.59809283  0.20912339  1.0
  P  P0  1  0.50000000  0.76475950  0.20912339  1.0
  P  P0  1  0.50000000  0.93142617  0.20912339  1.0
  P  P0  1  0.66666667  0.09809283  0.20912339  1.0
  P  P0  1  0.66666667  0.26475950  0.20912339  1.0
  P  P0  1  0.66666667  0.43142617  0.20912339  1.0
  P  P0  1  0.66666667  0.59809283  0.20912339  1.0
  P  P0  1  0.66666667  0.76475950  0.20912339  1.0
  P  P0  1  0.66666667  0.93142617  0.20912339  1.0
  P  P0  1  0.83333333  0.09809283  0.20912339  1.0
  P  P0  1  0.83333333  0.26475950  0.20912339  1.0
  P  P0  1  0.83333333  0.43142617  0.20912339  1.0
  P  P0  1  0.83333333  0.59809283  0.20912339  1.0
  P  P0  1  0.83333333  0.76475950  0.20912339  1.0
  P  P0  1  0.83333333  0.93142617  0.20912339  1.0
  P  P1  1  0.00000000  0.06857383  0.31443551  1.0
  P  P1  1  0.00000000  0.23524050  0.31443551  1.0
  P  P1  1  0.00000000  0.40190717  0.31443551  1.0
  P  P1  1  0.00000000  0.56857383  0.31443551  1.0
  P  P1  1  0.00000000  0.73524050  0.31443551  1.0
  P  P1  1  0.00000000  0.90190717  0.31443551  1.0
  P  P1  1  0.16666667  0.06857383  0.31443551  1.0
  P  P1  1  0.16666667  0.23524050  0.31443551  1.0
  P  P1  1  0.16666667  0.40190717  0.31443551  1.0
  P  P1  1  0.16666667  0.56857383  0.31443551  1.0
  P  P1  1  0.16666667  0.73524050  0.31443551  1.0
  P  P1  1  0.16666667  0.90190717  0.31443551  1.0
  P  P1  1  0.33333333  0.06857383  0.31443551  1.0
  P  P1  1  0.33333333  0.23524050  0.31443551  1.0
  P  P1  1  0.33333333  0.40190717  0.31443551  1.0
  P  P1  1  0.33333333  0.56857383  0.31443551  1.0
  P  P1  1  0.33333333  0.73524050  0.31443551  1.0
  P  P1  1  0.33333333  0.90190717  0.31443551  1.0
  P  P1  1  0.50000000  0.06857383  0.31443551  1.0
  P  P1  1  0.50000000  0.23524050  0.31443551  1.0
  P  P1  1  0.50000000  0.40190717  0.31443551  1.0
  P  P1  1  0.50000000  0.56857383  0.31443551  1.0
  P  P1  1  0.50000000  0.73524050  0.31443551  1.0
  P  P1  1  0.50000000  0.90190717  0.31443551  1.0
  P  P1  1  0.66666667  0.06857383  0.31443551  1.0
  P  P1  1  0.66666667  0.23524050  0.31443551  1.0
  P  P1  1  0.66666667  0.40190717  0.31443551  1.0
  P  P1  1  0.66666667  0.56857383  0.31443551  1.0
  P  P1  1  0.66666667  0.73524050  0.31443551  1.0
  P  P1  1  0.66666667  0.90190717  0.31443551  1.0
  P  P1  1  0.83333333  0.06857383  0.31443551  1.0
  P  P1  1  0.83333333  0.23524050  0.31443551  1.0
  P  P1  1  0.83333333  0.40190717  0.31443551  1.0
  P  P1  1  0.83333333  0.56857383  0.31443551  1.0
  P  P1  1  0.83333333  0.73524050  0.31443551  1.0
  P  P1  1  0.83333333  0.90190717  0.31443551  1.0
  P  P2  1  0.08333333  0.01475950  0.31443551  1.0
  P  P2  1  0.08333333  0.18142617  0.31443551  1.0
  P  P2  1  0.08333333  0.34809283  0.31443551  1.0
  P  P2  1  0.08333333  0.51475950  0.31443551  1.0
  P  P2  1  0.08333333  0.68142617  0.31443551  1.0
  P  P2  1  0.08333333  0.84809283  0.31443551  1.0
  P  P2  1  0.25000000  0.01475950  0.31443551  1.0
  P  P2  1  0.25000000  0.18142617  0.31443551  1.0
  P  P2  1  0.25000000  0.34809283  0.31443551  1.0
  P  P2  1  0.25000000  0.51475950  0.31443551  1.0
  P  P2  1  0.25000000  0.68142617  0.31443551  1.0
  P  P2  1  0.25000000  0.84809283  0.31443551  1.0
  P  P2  1  0.41666667  0.01475950  0.31443551  1.0
  P  P2  1  0.41666667  0.18142617  0.31443551  1.0
  P  P2  1  0.41666667  0.34809283  0.31443551  1.0
  P  P2  1  0.41666667  0.51475950  0.31443551  1.0
  P  P2  1  0.41666667  0.68142617  0.31443551  1.0
  P  P2  1  0.41666667  0.84809283  0.31443551  1.0
  P  P2  1  0.58333333  0.01475950  0.31443551  1.0
  P  P2  1  0.58333333  0.18142617  0.31443551  1.0
  P  P2  1  0.58333333  0.34809283  0.31443551  1.0
  P  P2  1  0.58333333  0.51475950  0.31443551  1.0
  P  P2  1  0.58333333  0.68142617  0.31443551  1.0
  P  P2  1  0.58333333  0.84809283  0.31443551  1.0
  P  P2  1  0.75000000  0.01475950  0.31443551  1.0
  P  P2  1  0.75000000  0.18142617  0.31443551  1.0
  P  P2  1  0.75000000  0.34809283  0.31443551  1.0
  P  P2  1  0.75000000  0.51475950  0.31443551  1.0
  P  P2  1  0.75000000  0.68142617  0.31443551  1.0
  P  P2  1  0.75000000  0.84809283  0.31443551  1.0
  P  P2  1  0.91666667  0.01475950  0.31443551  1.0
  P  P2  1  0.91666667  0.18142617  0.31443551  1.0
  P  P2  1  0.91666667  0.34809283  0.31443551  1.0
  P  P2  1  0.91666667  0.51475950  0.31443551  1.0
  P  P2  1  0.91666667  0.68142617  0.31443551  1.0
  P  P2  1  0.91666667  0.84809283  0.31443551  1.0
  P  P3  1  0.08333333  0.15190717  0.20912339  1.0
  P  P3  1  0.08333333  0.31857383  0.20912339  1.0
  P  P3  1  0.08333333  0.48524050  0.20912339  1.0
  P  P3  1  0.08333333  0.65190717  0.20912339  1.0
  P  P3  1  0.08333333  0.81857383  0.20912339  1.0
  P  P3  1  0.08333333  0.98524050  0.20912339  1.0
  P  P3  1  0.25000000  0.15190717  0.20912339  1.0
  P  P3  1  0.25000000  0.31857383  0.20912339  1.0
  P  P3  1  0.25000000  0.48524050  0.20912339  1.0
  P  P3  1  0.25000000  0.65190717  0.20912339  1.0
  P  P3  1  0.25000000  0.81857383  0.20912339  1.0
  P  P3  1  0.25000000  0.98524050  0.20912339  1.0
  P  P3  1  0.41666667  0.15190717  0.20912339  1.0
  P  P3  1  0.41666667  0.31857383  0.20912339  1.0
  P  P3  1  0.41666667  0.48524050  0.20912339  1.0
  P  P3  1  0.41666667  0.65190717  0.20912339  1.0
  P  P3  1  0.41666667  0.81857383  0.20912339  1.0
  P  P3  1  0.41666667  0.98524050  0.20912339  1.0
  P  P3  1  0.58333333  0.15190717  0.20912339  1.0
  P  P3  1  0.58333333  0.31857383  0.20912339  1.0
  P  P3  1  0.58333333  0.48524050  0.20912339  1.0
  P  P3  1  0.58333333  0.65190717  0.20912339  1.0
  P  P3  1  0.58333333  0.81857383  0.20912339  1.0
  P  P3  1  0.58333333  0.98524050  0.20912339  1.0
  P  P3  1  0.75000000  0.15190717  0.20912339  1.0
  P  P3  1  0.75000000  0.31857383  0.20912339  1.0
  P  P3  1  0.75000000  0.48524050  0.20912339  1.0
  P  P3  1  0.75000000  0.65190717  0.20912339  1.0
  P  P3  1  0.75000000  0.81857383  0.20912339  1.0
  P  P3  1  0.75000000  0.98524050  0.20912339  1.0
  P  P3  1  0.91666667  0.15190717  0.20912339  1.0
  P  P3  1  0.91666667  0.31857383  0.20912339  1.0
  P  P3  1  0.91666667  0.48524050  0.20912339  1.0
  P  P3  1  0.91666667  0.65190717  0.20912339  1.0
  P  P3  1  0.91666667  0.81857383  0.20912339  1.0
  P  P3  1  0.91666667  0.98524050  0.20912339  1.0
