# generated using pymatgen
data_BN
_symmetry_space_group_name_H-M   'P 1'
_cell_length_a   20.09942768
_cell_length_b   20.09942768
_cell_length_c   20.00000000
_cell_angle_alpha   90.00000000
_cell_angle_beta   90.00000000
_cell_angle_gamma   120.00001201
_symmetry_Int_Tables_number   1
_chemical_formula_structural   BN
_chemical_formula_sum   'B64 N64'
_cell_volume   6997.25912902
_cell_formula_units_Z   64
loop_
 _symmetry_equiv_pos_site_id
 _symmetry_equiv_pos_as_xyz
  1  'x, y, z'
loop_
 _atom_site_type_symbol
 _atom_site_label
 _atom_site_symmetry_multiplicity
 _atom_site_fract_x
 _atom_site_fract_y
 _atom_site_fract_z
 _atom_site_occupancy
  B  B0  1  0.04166667  0.08333333  0.19268162  1.0
  B  B0  1  0.04166667  0.20833333  0.19268162  1.0
  B  B0  1  0.04166667  0.33333333  0.19268162  1.0
  B  B0  1  0.04166667  0.45833333  0.19268162  1.0
  B  B0  1  0.04166667  0.58333333  0.19268162  1.0
  B  B0  1  0.04166667  0.70833333  0.19268162  1.0
  B  B0  1  0.04166667  0.83333333  0.19268162  1.0
  B  B0  1  0.04166667  0.95833333  0.19268162  1.0
  B  B0  1  0.16666667  0.08333333  0.19268162  1.0
  B  B0  1  0.16666667  0.20833333  0.19268162  1.0
  B  B0  1  0.16666667  0.33333333  0.19268162  1.0
  B  B0  1  0.16666667  0.45833333  0.19268162  1.0
  B  B0  1  0.16666667  0.58333333  0.19268162  1.0
  B  B0  1  0.16666667  0.70833333  0.19268162  1.0
  B  B0  1  0.16666667  0.83333333  0.19268162  1.0
  B  B0  1  0.16666667  0.95833333  0.19268163  1.0
  B  B0  1  0.29166667  0.08333333  0.19268162  1.0
  B  B0  1  0.29166667  0.20833333  0.19268162  1.0
  B  B0  1  0.29166667  0.33333333  0.19268162  1.0
  B  B0  1  0.29166667  0.45833333  0.19268162  1.0
  B  B0  1  0.29166667  0.58333333  0.19268162  1.0
  B  B0  1  0.29166667  0.70833333  0.19268162  1.0
  B  B0  1  0.29166667  0.83333333  0.19268163  1.0
  B  B0  1  0.29166667  0.95833333  0.19268162  1.0
  B  B0  1  0.41666667  0.08333333  0.19268162  1.0
  B  B0  1  0.41666667  0.20833333  0.19268162  1.0
  B  B0  1  0.41666667  0.33333333  0.19268162  1.0
  B  B0  1  0.41666667  0.45833333  0.19268162  1.0
  B  B0  1  0.41666667  0.58333333  0.19268162  1.0
  B  B0  1  0.41666667  0.70833333  0.19268163  1.0
  B  B0  1  0.41666667  0.83333333  0.19268162  1.0
  B  B0  1  0.41666667  0.95833333  0.19268162  1.0
  B  B0  1  0.54166667  0.08333333  0.19268162  1.0
  B  B0  1  0.54166667  0.20833333  0.19268162  1.0
  B  B0  1  0.54166667  0.33333333  0.19268162  1.0
  B  B0  1  0.54166667  0.45833333  0.19268162  1.0
  B  B0  1  0.54166667  0.58333333  0.19268163  1.0
  B  B0  1  0.54166667  0.70833333  0.19268162  1.0
  B  B0  1  0.54166667  0.83333333  0.19268162  1.0
  B  B0  1  0.54166667  0.95833333  0.19268162  1.0
  B  B0  1  0.66666667  0.08333333  0.19268162  1.0
  B  B0  1  0.66666667  0.20833333  0.19268162  1.0
  B  B0  1  0.66666667  0.33333333  0.19268162  1.0
  B  B0  1  0.66666667  0.45833333  0.19268163  1.0
  B  B0  1  0.66666667  0.58333333  0.19268162  1.0
  B  B0  1  0.66666667  0.70833333  0.19268162  1.0
  B  B0  1  0.66666667  0.83333333  0.19268162  1.0
  B  B0  1  0.66666667  0.95833333  0.19268162  1.0
  B  B0  1  0.79166667  0.08333333  0.19268162  1.0
  B  B0  1  0.79166667  0.20833333  0.19268162  1.0
  B  B0  1  0.79166667  0.33333333  0.19268163  1.0
  B  B0  1  0.79166667  0.45833333  0.19268162  1.0
  B  B0  1  0.79166667  0.58333333  0.19268162  1.0
  B  B0  1  0.79166667  0.70833333  0.19268162  1.0
  B  B0  1  0.79166667  0.83333333  0.19268162  1.0
  B  B0  1  0.79166667  0.95833333  0.19268162  1.0
  B  B0  1  0.91666667  0.08333333  0.19268162  1.0
  B  B0  1  0.91666667  0.20833333  0.19268163  1.0
  B  B0  1  0.91666667  0.33333333  0.19268162  1.0
  B  B0  1  0.91666667  0.45833333  0.19268162  1.0
  B  B0  1  0.91666667  0.58333333  0.19268162  1.0
  B  B0  1  0.91666667  0.70833333  0.19268162  1.0
  B  B0  1  0.91666667  0.83333333  0.19268162  1.0
  B  B0  1  0.91666667  0.95833333  0.19268162  1.0
  N  N3  1  0.08333333  0.04166667  0.19268162  1.0
  N  N3  1  0.08333333  0.16666667  0.19268162  1.0
  N  N3  1  0.08333333  0.29166667  0.19268162  1.0
  N  N3  1  0.08333333  0.41666667  0.19268162  1.0
  N  N3  1  0.08333333  0.54166667  0.19268162  1.0
  N  N3  1  0.08333333  0.66666667  0.19268162  1.0
  N  N3  1  0.08333333  0.79166667  0.19268162  1.0
  N  N3  1  0.08333333  0.91666667  0.19268162  1.0
  N  N3  1  0.20833333  0.04166667  0.19268162  1.0
  N  N3  1  0.20833333  0.16666667  0.19268162  1.0
  N  N3  1  0.20833333  0.29166667  0.19268162  1.0
  N  N3  1  0.20833333  0.41666667  0.19268162  1.0
  N  N3  1  0.20833333  0.54166667  0.19268162  1.0
  N  N3  1  0.20833333  0.66666667  0.19268162  1.0
  N  N3  1  0.20833333  0.79166667  0.19268162  1.0
  N  N3  1  0.20833333  0.91666667  0.19268163  1.0
  N  N3  1  0.33333333  0.04166667  0.19268162  1.0
  N  N3  1  0.33333333  0.16666667  0.19268162  1.0
  N  N3  1  0.33333333  0.29166667  0.19268162  1.0
  N  N3  1  0.33333333  0.41666667  0.19268162  1.0
  N  N3  1  0.33333333  0.54166667  0.19268162  1.0
  N  N3  1  0.33333333  0.66666667  0.19268162  1.0
  N  N3  1  0.33333333  0.79166667  0.19268163  1.0
  N  N3  1  0.33333333  0.91666667  0.19268162  1.0
  N  N3  1  0.45833333  0.04166667  0.19268162  1.0
  N  N3  1  0.45833333  0.16666667  0.19268162  1.0
  N  N3  1  0.45833333  0.29166667  0.19268162  1.0
  N  N3  1  0.45833333  0.41666667  0.19268162  1.0
  N  N3  1  0.45833333  0.54166667  0.19268162  1.0
  N  N3  1  0.45833333  0.66666667  0.19268163  1.0
  N  N3  1  0.45833333  0.79166667  0.19268162  1.0
  N  N3  1  0.45833333  0.91666667  0.19268162  1.0
  N  N3  1  0.58333333  0.04166667  0.19268162  1.0
  N  N3  1  0.58333333  0.16666667  0.19268162  1.0
  N  N3  1  0.58333333  0.29166667  0.19268162  1.0
  N  N3  1  0.58333333  0.41666667  0.19268162  1.0
  N  N3  1  0.58333333  0.54166667  0.19268163  1.0
  N  N3  1  0.58333333  0.66666667  0.19268162  1.0
  N  N3  1  0.58333333  0.79166667  0.19268162  1.0
  N  N3  1  0.58333333  0.91666667  0.19268162  1.0
  N  N3  1  0.70833333  0.04166667  0.19268162  1.0
  N  N3  1  0.70833333  0.16666667  0.19268162  1.0
  N  N3  1  0.70833333  0.29166667  0.19268162  1.0
  N  N3  1  0.70833333  0.41666667  0.19268163  1.0
  N  N3  1  0.70833333  0.54166667  0.19268162  1.0
  N  N3  1  0.70833333  0.66666667  0.19268162  1.0
  N  N3  1  0.70833333  0.79166667  0.19268162  1.0
  N  N3  1  0.70833333  0.91666667  0.19268162  1.0
  N  N3  1  0.83333333  0.04166667  0.19268162  1.0
  N  N3  1  0.83333333  0.16666667  0.19268162  1.0
  N  N3  1  0.83333333  0.29166667  0.19268163  1.0
  N  N3  1  0.83333333  0.41666667  0.19268162  1.0
  N  N3  1  0.83333333  0.54166667  0.19268162  1.0
  N  N3  1  0.83333333  0.66666667  0.19268162  1.0
  N  N3  1  0.83333333  0.79166667  0.19268162  1.0
  N  N3  1  0.83333333  0.91666667  0.19268162  1.0
  N  N3  1  0.95833333  0.04166667  0.19268162  1.0
  N  N3  1  0.95833333  0.16666667  0.19268163  1.0
  N  N3  1  0.95833333  0.29166667  0.19268162  1.0
  N  N3  1  0.95833333  0.41666667  0.19268162  1.0
  N  N3  1  0.95833333  0.54166667  0.19268162  1.0
  N  N3  1  0.95833333  0.66666667  0.19268162  1.0
  N  N3  1  0.95833333  0.79166667  0.19268162  1.0
  N  N3  1  0.95833333  0.91666667  0.19268162  1.0
